2021-05-25T16:16:27,770  INFO Gbl:63 JVM: 15.0.2; Oracle Corporation; mixed mode, sharing; 64-bit
2021-05-25T16:16:27,771  INFO Gbl:67 OS: Windows 10; 10.0; amd64
2021-05-25T16:16:27,772  INFO Gbl:70 CPU cores: 8
2021-05-25T16:16:27,778  INFO Gbl:71 max. Memory: 8144.0MB (8539602944B)
2021-05-25T16:16:27,779  INFO Gbl:109 MATSim-Build: r2e1ebdd9374731ec45d5e5435ee544ef8db1a6ee (2021-04-10 20:07:43)
2021-05-25T16:16:27,784  INFO ControlerListenerManagerImpl:107 calling notifyStartup on org.matsim.guice.DependencyGraphControlerListener
2021-05-25T16:16:27,791  INFO MemoryObserver:41 used RAM: 38 MB  free: 29 MB  total: 68 MB
2021-05-25T16:16:27,980  INFO ControlerListenerManagerImpl:107 calling notifyStartup on org.matsim.counts.CountsControlerListener
2021-05-25T16:16:27,986  INFO ControlerListenerManagerImpl:107 calling notifyStartup on org.matsim.analysis.ModeStatsControlerListener
2021-05-25T16:16:27,986  INFO ControlerListenerManagerImpl:107 calling notifyStartup on org.matsim.analysis.ScoreStatsControlerListener
2021-05-25T16:16:27,987  INFO ControlerListenerManagerImpl:110 all ControlerStartupListeners called.
2021-05-25T16:16:27,988  INFO ControlerUtils:79 config dump before iterations start
2021-05-25T16:16:27,999  INFO ControlerUtils:83 

<?xml version="1.0" encoding="UTF-8"?>
<!DOCTYPE config SYSTEM "http://www.matsim.org/files/dtd/config_v2.dtd">
<config>
	<module name="JDEQSim" >
		<param name="carSize" value="7.5" />
		<param name="endTime" value="undefined" />
		<param name="flowCapacityFactor" value="1.0" />
		<param name="gapTravelSpeed" value="15.0" />
		<param name="minimumInFlowCapacity" value="1800.0" />
		<param name="squeezeTime" value="1800.0" />
		<param name="storageCapacityFactor" value="1.0" />
	</module>
	<module name="SBBPt" >
		<!-- (iterationNumber % createLinkEventsInterval) == 0 defines in which iterations linkEnter- and linkLeave-events are created,
				"useful for visualization or analysis purposes. Defaults to 0. `0' disables the creation of events completely. -->
		<param name="createLinkEventsInterval" value="0" />
		<!-- Leg modes used by the created transit drivers that should be simulated strictly according to the schedule. -->
		<param name="deterministicServiceModes" value="train" />
	</module>
	<module name="TimeAllocationMutator" >
		<!-- Default:true; Defines whether time mutation changes an activity's duration. -->
		<param name="mutationAffectsDuration" value="true" />
		<!-- Default:1800.0; Defines how many seconds a time mutation can maximally shift a time. -->
		<param name="mutationRange" value="1800.0" />
	</module>
	<module name="changeMode" >
		<!-- Defines whether car availability is considered be considered or not. An agent has no car only if it has no license, or never access to a car. Default: true -->
		<param name="ignoreCarAvailability" value="true" />
		<!-- Defines the mode switch behavior. Possible values [fromAllModesToSpecifiedModes, fromSpecifiedModesToSpecifiedModes] Default: fromSpecifiedModesToSpecifiedModes. -->
		<param name="modeSwitchBehavior" value="fromSpecifiedModesToSpecifiedModes" />
		<!-- Defines all the modes available, including chain-based modes, seperated by commas -->
		<param name="modes" value="car,pt" />
	</module>
	<module name="controler" >
		<!-- Compression algorithm to use when writing out data to files. Possible values: [none, gzip, lz4, zst] -->
		<param name="compressionType" value="gzip" />
		<!-- Sets whether graphs showing some analyses should automatically be generated during the simulation. The generation of graphs usually takes a small amount of time that does not have any weight in big simulations, but add a significant overhead in smaller runs or in test cases where the graphical output is not even requested. -->
		<param name="createGraphs" value="true" />
		<!-- true if at the end of a run, plans, network, config etc should be dumped to a file -->
		<param name="dumpDataAtEnd" value="true" />
		<!-- Default=false. If enabled, the router takes travel times needed for turning moves into account. Cannot be used if the (Fast)AStarLandmarks routing or TravelTimeCalculator.separateModes is enabled. -->
		<param name="enableLinkToLinkRouting" value="false" />
		<!-- Default=xml; Specifies the file format for writing events. Currently supported: [xml, pb, json]
		Multiple values can be specified separated by commas (','). -->
		<param name="eventsFileFormat" value="xml" />
		<!-- Default=0. First Iteration of a simulation. -->
		<param name="firstIteration" value="0" />
		<!-- Default=1000. Last Iteration of a simulation. -->
		<param name="lastIteration" value="0" />
		<!-- Defines which mobility simulation will be used. Currently supported: qsim JDEQSim hermes 
		Depending on the chosen mobsim, you'll have to add additional config modules to configure the corresponding mobsim.
		For 'qsim', add a module 'qsim' to the config. -->
		<param name="mobsim" value="qsim" />
		<param name="outputDirectory" value="test/output/ch/sbb/matsim/mobsim/qsim/pt/SBBTransitQSimEngineIntegrationTest/testIntegration_misconfiguration/" />
		<!-- Possible values: failIfDirectoryExists, overwriteExistingFiles, deleteDirectoryIfExists -->
		<param name="overwriteFiles" value="failIfDirectoryExists" />
		<!-- The type of routing (least cost path) algorithm used, may have the values: [Dijkstra, AStarLandmarks, FastDijkstra, FastAStarLandmarks, SpeedyALT] -->
		<param name="routingAlgorithmType" value="AStarLandmarks" />
		<!-- An identifier for the current run which is used as prefix for output files and mentioned in output xml files etc. -->
		<param name="runId" value="null" />
		<!-- Comma-separated list of visualizer output file formats. `transims', `googleearth', and `otfvis'. -->
		<param name="snapshotFormat" value="" />
		<!-- iterationNumber % writeEventsInterval == 0 defines in which iterations events are written to a file. `0' disables events writing completely. -->
		<param name="writeEventsInterval" value="10" />
		<!-- iterationNumber % writePlansInterval == 0 defines (hopefully) in which iterations plans are written to a file. `0' disables plans writing completely.  Some plans in early iterations are always written -->
		<param name="writePlansInterval" value="10" />
		<!-- iterationNumber % writeSnapshotsInterval == 0 defines in which iterations snapshots are written to a file. `0' disables snapshots writing completely -->
		<param name="writeSnapshotsInterval" value="1" />
		<!-- iterationNumber % writeEventsInterval == 0 defines in which iterations trips CSV are written to a file. `0' disables trips writing completely. -->
		<param name="writeTripsInterval" value="10" />
	</module>
	<module name="counts" >
		<!-- Transport modes that will be respected for the counts comparison. 'car' is default, which includes also bussed from the pt simulation module. Use this parameter in combination with 'filterModes' = true! -->
		<param name="analyzedModes" value="car" />
		<!-- Specifies over how many iterations the link volumes should be averaged that are used for the counts comparison. Use 1 or 0 to only use the link volumes of a single iteration. This values cannot be larger than the value specified for writeCountsInterval -->
		<param name="averageCountsOverIterations" value="5" />
		<!-- factor by which to re-scale the simulated values.  necessary when simulation runs with something different from 100%.  needs to be adapted manually -->
		<param name="countsScaleFactor" value="1.0" />
		<!-- distance to distanceFilterCenterNode to include counting stations. The unit of distance is the Euclidean distance implied by the coordinate system -->
		<param name="distanceFilter" value="null" />
		<!-- node id for center node of distance filter -->
		<param name="distanceFilterCenterNode" value="null" />
		<!-- If true, link counts from legs performed on modes not included in the 'analyzedModes' parameter are ignored. -->
		<param name="filterModes" value="false" />
		<!-- The Coordinates Reference System in which the coordinates are expressed in the input file. At import, the coordinates will be converted to the coordinate system defined in "global", and willbe converted back at export. If not specified, no conversion happens. -->
		<param name="inputCRS" value="null" />
		<!-- input file name to counts package -->
		<param name="inputCountsFile" value="null" />
		<!-- possible values: `html', `kml', `txt', `all' -->
		<param name="outputformat" value="txt" />
		<!-- Specifies how often the counts comparison should be calculated and written. -->
		<param name="writeCountsInterval" value="10" />
	</module>
	<module name="facilities" >
		<!-- This defines how facilities should be created. Possible values: none fromFile setInScenario onePerActivityLinkInPlansFile onePerActivityLinkInPlansFileExceptWhenCoordinatesAreGiven onePerActivityLocationInPlansFile  -->
		<param name="facilitiesSource" value="none" />
		<!-- A prefix to be used for auto-generated IDs. -->
		<param name="idPrefix" value="f_auto_" />
		<!-- The Coordinates Reference System in which the coordinates are expressed in the input file. At import, the coordinates will be converted to the coordinate system defined in "global", and willbe converted back at export. If not specified, no conversion happens. -->
		<param name="inputCRS" value="null" />
		<param name="inputFacilitiesFile" value="null" />
		<param name="inputFacilityAttributesFile" value="null" />
		<param name="insistingOnUsingDeprecatedFacilitiesAttributeFile" value="false" />
	</module>
	<module name="global" >
		<param name="coordinateSystem" value="Atlantis" />
		<param name="defaultDelimiter" value=";" />
		<param name="insistingOnDeprecatedConfigVersion" value="true" />
		<!-- "global" number of threads.  This number is used, e.g., for replanning, but NOT in QSim.  This can typically be set to as many cores as you have available, or possibly even slightly more. -->
		<param name="numberOfThreads" value="2" />
		<param name="randomSeed" value="4711" />
	</module>
	<module name="hermes" >
		<!-- Simulation End Time -->
		<param name="endTime" value="30:00:00" />
		<param name="flowCapacityFactor" value="1.0" />
		<param name="mainMode" value="car" />
		<param name="storageCapacityFactor" value="1.0" />
		<!-- time in seconds.  Time after which the frontmost vehicle on a link is called `stuck' if it does not move. Set to Integer.MAX_VALUE to disable this behavior -->
		<param name="stuckTime" value="10" />
		<!-- treats PT as deterministic. PT vehicles will run with a steady speed. Should be used with separate network layers for PT and other network modes. -->
		<param name="useDeterministicPt" value="false" />
	</module>
	<module name="households" >
		<param name="inputFile" value="null" />
		<param name="inputHouseholdAttributesFile" value="null" />
		<param name="insistingOnUsingDeprecatedHouseholdsAttributeFile" value="false" />
	</module>
	<module name="linkStats" >
		<!-- Specifies over how many iterations the link volumes should be averaged that are used for the link statistics. Use 1 or 0 to only use the link volumes of a single iteration. This values cannot be larger than the value specified for writeLinkStatsInterval -->
		<param name="averageLinkStatsOverIterations" value="5" />
		<!-- Specifies how often the link stats should be calculated and written. Use 0 to disable the generation of link stats. -->
		<param name="writeLinkStatsInterval" value="10" />
	</module>
	<module name="network" >
		<!-- The Coordinates Reference System in which the coordinates are expressed in the input file. At import, the coordinates will be converted to the coordinate system defined in "global", and willbe converted back at export. If not specified, no conversion happens. -->
		<param name="inputCRS" value="null" />
		<param name="inputChangeEventsFile" value="null" />
		<param name="inputNetworkFile" value="null" />
		<param name="laneDefinitionsFile" value="null" />
		<param name="timeVariantNetwork" value="false" />
	</module>
	<module name="parallelEventHandling" >
		<!-- Estimated number of events during mobsim run. An optional optimization hint for the framework. -->
		<param name="estimatedNumberOfEvents" value="null" />
		<!-- Size of the events Queue. Increase for very large scenarios -->
		<param name="eventsQueueSize" value="131072" />
		<!-- Number of threads for parallel events handler. _null_ means the framework decides by itself. 0 is currently not possible. -->
		<param name="numberOfThreads" value="null" />
		<!-- If enabled, each event handler is assigned to its own thread. Note that enabling this feature disabled the numberOfThreads option! This feature is still experimental! -->
		<param name="oneThreadPerHandler" value="false" />
		<!-- If enabled, it is ensured that all events that are created during a time step of the mobility simulation are processed before the next time step is simulated. E.g. neccessary when within-day replanning is used. -->
		<param name="synchronizeOnSimSteps" value="true" />
	</module>
	<module name="planCalcScore" >
		<!-- logit model scale parameter. default: 1.  Has name and default value for historical reasons (see Bryan Raney's phd thesis). -->
		<param name="BrainExpBeta" value="1.0" />
		<param name="PathSizeLogitBeta" value="1.0" />
		<!-- fraction of iterations at which MSA score averaging is started. The matsim theory department suggests to use this together with switching off choice set innovation (where a similar switch exists), but it has not been tested yet. -->
		<param name="fractionOfIterationsToStartScoreMSA" value="null" />
		<!-- new_score = (1-learningRate)*old_score + learningRate * score_from_mobsim.  learning rates close to zero emulate score averaging, but slow down initial convergence -->
		<param name="learningRate" value="1.0" />
		<!-- There used to be a plateau between duration=0 and duration=zeroUtilityDuration. This caused durations to evolve to zero once they were below zeroUtilityDuration, causing problems.  Only use this switch if you need to be backwards compatible with some old results.  (changed nov'13) -->
		<param name="usingOldScoringBelowZeroUtilityDuration" value="false" />
		<!-- write a plans file in each iteration directory which contains what each agent actually did, and the score it received. -->
		<param name="writeExperiencedPlans" value="false" />
		<parameterset type="scoringParameters" >
			<param name="earlyDeparture" value="-0.0" />
			<param name="lateArrival" value="-18.0" />
			<param name="marginalUtilityOfMoney" value="1.0" />
			<param name="performing" value="6.0" />
			<param name="subpopulation" value="null" />
			<param name="utilityOfLineSwitch" value="-1.0" />
			<param name="waiting" value="-0.0" />
			<param name="waitingPt" value="-6.0" />
			<parameterset type="activityParams" >
				<param name="activityType" value="dummy" />
				<param name="closingTime" value="undefined" />
				<param name="earliestEndTime" value="undefined" />
				<param name="latestStartTime" value="undefined" />
				<param name="minimalDuration" value="undefined" />
				<param name="openingTime" value="undefined" />
				<param name="priority" value="1.0" />
				<param name="scoringThisActivityAtAll" value="true" />
				<!-- typical duration of activity.  needs to be defined and non-zero.  in sec. -->
				<param name="typicalDuration" value="02:00:00" />
				<!-- method to compute score at typical duration.  Options: | uniform | relative | Use uniform for backwards compatibility (all activities same score; higher proba to drop long acts). -->
				<param name="typicalDurationScoreComputation" value="relative" />
			</parameterset>
			<parameterset type="activityParams" >
				<param name="activityType" value="car interaction" />
				<param name="closingTime" value="undefined" />
				<param name="earliestEndTime" value="undefined" />
				<param name="latestStartTime" value="undefined" />
				<param name="minimalDuration" value="undefined" />
				<param name="openingTime" value="undefined" />
				<param name="priority" value="1.0" />
				<param name="scoringThisActivityAtAll" value="false" />
				<param name="typicalDuration" value="undefined" />
				<param name="typicalDurationScoreComputation" value="relative" />
			</parameterset>
			<parameterset type="activityParams" >
				<param name="activityType" value="pt interaction" />
				<param name="closingTime" value="undefined" />
				<param name="earliestEndTime" value="undefined" />
				<param name="latestStartTime" value="undefined" />
				<param name="minimalDuration" value="undefined" />
				<param name="openingTime" value="undefined" />
				<param name="priority" value="1.0" />
				<param name="scoringThisActivityAtAll" value="false" />
				<param name="typicalDuration" value="undefined" />
				<param name="typicalDurationScoreComputation" value="relative" />
			</parameterset>
			<parameterset type="activityParams" >
				<param name="activityType" value="bike interaction" />
				<param name="closingTime" value="undefined" />
				<param name="earliestEndTime" value="undefined" />
				<param name="latestStartTime" value="undefined" />
				<param name="minimalDuration" value="undefined" />
				<param name="openingTime" value="undefined" />
				<param name="priority" value="1.0" />
				<param name="scoringThisActivityAtAll" value="false" />
				<param name="typicalDuration" value="undefined" />
				<param name="typicalDurationScoreComputation" value="relative" />
			</parameterset>
			<parameterset type="activityParams" >
				<param name="activityType" value="drt interaction" />
				<param name="closingTime" value="undefined" />
				<param name="earliestEndTime" value="undefined" />
				<param name="latestStartTime" value="undefined" />
				<param name="minimalDuration" value="undefined" />
				<param name="openingTime" value="undefined" />
				<param name="priority" value="1.0" />
				<param name="scoringThisActivityAtAll" value="false" />
				<param name="typicalDuration" value="undefined" />
				<param name="typicalDurationScoreComputation" value="relative" />
			</parameterset>
			<parameterset type="activityParams" >
				<param name="activityType" value="taxi interaction" />
				<param name="closingTime" value="undefined" />
				<param name="earliestEndTime" value="undefined" />
				<param name="latestStartTime" value="undefined" />
				<param name="minimalDuration" value="undefined" />
				<param name="openingTime" value="undefined" />
				<param name="priority" value="1.0" />
				<param name="scoringThisActivityAtAll" value="false" />
				<param name="typicalDuration" value="undefined" />
				<param name="typicalDurationScoreComputation" value="relative" />
			</parameterset>
			<parameterset type="activityParams" >
				<param name="activityType" value="other interaction" />
				<param name="closingTime" value="undefined" />
				<param name="earliestEndTime" value="undefined" />
				<param name="latestStartTime" value="undefined" />
				<param name="minimalDuration" value="undefined" />
				<param name="openingTime" value="undefined" />
				<param name="priority" value="1.0" />
				<param name="scoringThisActivityAtAll" value="false" />
				<param name="typicalDuration" value="undefined" />
				<param name="typicalDurationScoreComputation" value="relative" />
			</parameterset>
			<parameterset type="activityParams" >
				<param name="activityType" value="walk interaction" />
				<param name="closingTime" value="undefined" />
				<param name="earliestEndTime" value="undefined" />
				<param name="latestStartTime" value="undefined" />
				<param name="minimalDuration" value="undefined" />
				<param name="openingTime" value="undefined" />
				<param name="priority" value="1.0" />
				<param name="scoringThisActivityAtAll" value="false" />
				<param name="typicalDuration" value="undefined" />
				<param name="typicalDurationScoreComputation" value="relative" />
			</parameterset>
			<parameterset type="activityParams" >
				<param name="activityType" value="ride interaction" />
				<param name="closingTime" value="undefined" />
				<param name="earliestEndTime" value="undefined" />
				<param name="latestStartTime" value="undefined" />
				<param name="minimalDuration" value="undefined" />
				<param name="openingTime" value="undefined" />
				<param name="priority" value="1.0" />
				<param name="scoringThisActivityAtAll" value="false" />
				<param name="typicalDuration" value="undefined" />
				<param name="typicalDurationScoreComputation" value="relative" />
			</parameterset>
			<parameterset type="modeParams" >
				<!-- [utils] alternative-specific constant.  Normally per trip, but that is probably buggy for multi-leg trips. -->
				<param name="constant" value="0.0" />
				<!-- [money] daily monetary constant. default=0 to be backwards compatible -->
				<param name="dailyMonetaryConstant" value="0.0" />
				<!-- [utils] daily utility constant. default=0 to be backwards compatible -->
				<param name="dailyUtilityConstant" value="0.0" />
				<!-- [utils/m] utility of traveling (e.g. walking or driving) per m, normally negative.  this is on top of the time (dis)utility. -->
				<param name="marginalUtilityOfDistance_util_m" value="0.0" />
				<!-- [utils/hr] additional marginal utility of traveling.  normally negative.  this comes on top of the opportunity cost of time -->
				<param name="marginalUtilityOfTraveling_util_hr" value="-6.0" />
				<param name="mode" value="car" />
				<!-- [unit_of_money/m] conversion of distance into money. Normally negative. -->
				<param name="monetaryDistanceRate" value="0.0" />
			</parameterset>
			<parameterset type="modeParams" >
				<param name="constant" value="0.0" />
				<param name="dailyMonetaryConstant" value="0.0" />
				<param name="dailyUtilityConstant" value="0.0" />
				<param name="marginalUtilityOfDistance_util_m" value="0.0" />
				<param name="marginalUtilityOfTraveling_util_hr" value="-6.0" />
				<param name="mode" value="pt" />
				<param name="monetaryDistanceRate" value="0.0" />
			</parameterset>
			<parameterset type="modeParams" >
				<param name="constant" value="0.0" />
				<param name="dailyMonetaryConstant" value="0.0" />
				<param name="dailyUtilityConstant" value="0.0" />
				<param name="marginalUtilityOfDistance_util_m" value="0.0" />
				<param name="marginalUtilityOfTraveling_util_hr" value="-6.0" />
				<param name="mode" value="walk" />
				<param name="monetaryDistanceRate" value="0.0" />
			</parameterset>
			<parameterset type="modeParams" >
				<param name="constant" value="0.0" />
				<param name="dailyMonetaryConstant" value="0.0" />
				<param name="dailyUtilityConstant" value="0.0" />
				<param name="marginalUtilityOfDistance_util_m" value="0.0" />
				<param name="marginalUtilityOfTraveling_util_hr" value="-6.0" />
				<param name="mode" value="bike" />
				<param name="monetaryDistanceRate" value="0.0" />
			</parameterset>
			<parameterset type="modeParams" >
				<param name="constant" value="0.0" />
				<param name="dailyMonetaryConstant" value="0.0" />
				<param name="dailyUtilityConstant" value="0.0" />
				<param name="marginalUtilityOfDistance_util_m" value="0.0" />
				<param name="marginalUtilityOfTraveling_util_hr" value="-6.0" />
				<param name="mode" value="ride" />
				<param name="monetaryDistanceRate" value="0.0" />
			</parameterset>
			<parameterset type="modeParams" >
				<param name="constant" value="0.0" />
				<param name="dailyMonetaryConstant" value="0.0" />
				<param name="dailyUtilityConstant" value="0.0" />
				<param name="marginalUtilityOfDistance_util_m" value="0.0" />
				<param name="marginalUtilityOfTraveling_util_hr" value="-6.0" />
				<param name="mode" value="other" />
				<param name="monetaryDistanceRate" value="0.0" />
			</parameterset>
		</parameterset>
	</module>
	<module name="plans" >
		<!-- String: minOfDurationAndEndTime tryEndTimeThenDuration endTimeOnly. Anything besides minOfDurationAndEndTime will internally use a different (simpler) version of the TimeAllocationMutator. -->
		<param name="activityDurationInterpretation" value="tryEndTimeThenDuration" />
		<!-- Possible values: reject, useMainModeIdentifier -->
		<param name="handlingOfPlansWithoutRoutingMode" value="reject" />
		<!-- The Coordinates Reference System in which the coordinates are expressed in the input file. At import, the coordinates will be converted to the coordinate system defined in "global", and willbe converted back at export. If not specified, no conversion happens. -->
		<param name="inputCRS" value="null" />
		<param name="inputPersonAttributesFile" value="null" />
		<param name="inputPlansFile" value="null" />
		<param name="insistingOnUsingDeprecatedPersonAttributeFile" value="false" />
		<!-- Defines how routes are stored in memory. Currently supported: LinkNetworkRoute, CompressedNetworkRoute. -->
		<param name="networkRouteType" value="LinkNetworkRoute" />
		<!-- (not tested) will remove plan attributes that are presumably not used, such as activityStartTime. default=false. Use with Caution! -->
		<param name="removingUnnecessaryPlanAttributes" value="false" />
	</module>
	<module name="planscalcroute" >
		<!-- Some typical teleportation routing params are set by default, such as for walk and bike.  Setting this switch to "true" will clear them.  Note that this will also clear settings for helper modes such as for non_network_walk -->
		<param name="clearDefaultTeleportedModeParams" value="false" />
		<!-- All the modes for which the router is supposed to generate network routes (like car) -->
		<param name="networkModes" value="car" />
		<!-- strength of the randomness for the utility of money in routing under toll.  Leads to Pareto-optimal route with randomly drawn money-vs-other-attributes tradeoff. Technically the width parameter of a log-normal distribution. 3.0 seems to be a good value.  -->
		<param name="routingRandomness" value="3.0" />
		<parameterset type="teleportedModeParameters" >
			<param name="beelineDistanceFactor" value="1.3" />
			<param name="mode" value="bike" />
			<!-- Free-speed factor for a teleported mode. Travel time = teleportedModeFreespeedFactor * <freespeed car travel time>. Insert a line like this for every such mode. Please do not set teleportedModeFreespeedFactor as well as teleportedModeSpeed for the same mode, but if you do, +teleportedModeFreespeedFactor wins over teleportedModeSpeed. -->
			<param name="teleportedModeFreespeedFactor" value="null" />
			<!-- Speed for a teleported mode. Travel time = (<beeline distance> * beelineDistanceFactor) / teleportedModeSpeed. Insert a line like this for every such mode. -->
			<param name="teleportedModeSpeed" value="4.166666666666667" />
		</parameterset>
		<parameterset type="teleportedModeParameters" >
			<param name="beelineDistanceFactor" value="1.3" />
			<param name="mode" value="walk" />
			<param name="teleportedModeFreespeedFactor" value="null" />
			<param name="teleportedModeSpeed" value="0.8333333333333333" />
		</parameterset>
		<parameterset type="teleportedModeParameters" >
			<param name="beelineDistanceFactor" value="1.3" />
			<param name="mode" value="non_network_walk" />
			<param name="teleportedModeFreespeedFactor" value="null" />
			<param name="teleportedModeSpeed" value="0.8333333333333333" />
		</parameterset>
		<parameterset type="teleportedModeParameters" >
			<param name="beelineDistanceFactor" value="1.3" />
			<param name="mode" value="ride" />
			<param name="teleportedModeFreespeedFactor" value="1.0" />
			<param name="teleportedModeSpeed" value="null" />
		</parameterset>
		<parameterset type="teleportedModeParameters" >
			<param name="beelineDistanceFactor" value="1.3" />
			<param name="mode" value="pt" />
			<param name="teleportedModeFreespeedFactor" value="2.0" />
			<param name="teleportedModeSpeed" value="null" />
		</parameterset>
	</module>
	<module name="ptCounts" >
		<!-- factor by which to re-scale the simulated values.  necessary when simulation runs with something different from 100%.  needs to be adapted manually -->
		<param name="countsScaleFactor" value="1.0" />
		<!-- distance to distanceFilterCenterNode to include counting stations. The unit of distance is the Euclidean distance implied by the coordinate system -->
		<param name="distanceFilter" value="null" />
		<!-- node id for center node of distance filter -->
		<param name="distanceFilterCenterNode" value="null" />
		<!-- input file containing the alighting (getting off) counts for pt -->
		<param name="inputAlightCountsFile" value="null" />
		<!-- input file containing the boarding (getting on) counts for pt -->
		<param name="inputBoardCountsFile" value="null" />
		<!-- input file containing the occupancy counts for pt -->
		<param name="inputOccupancyCountsFile" value="null" />
		<!-- possible values: `html', `kml', `txt', `all' -->
		<param name="outputformat" value="null" />
		<!-- every how many iterations (starting with 0) counts comparisons are generated -->
		<param name="ptCountsInterval" value="10" />
	</module>
	<module name="qsim" >
		<param name="endTime" value="24:00:00" />
		<param name="flowCapacityFactor" value="1.0" />
		<!-- decides if waiting vehicles enter the network after or before the already driving vehicles were moved. Default: false -->
		<param name="insertingWaitingVehiclesBeforeDrivingVehicles" value="true" />
		<!-- If link dynamics is set as SeepageQ, set to false if all seep modes should perform seepage. Default is true (better option). -->
		<param name="isRestrictingSeepage" value="true" />
		<!-- If link dynamics is set as SeepageQ, set to true if seep mode do not consumes any space on the link. Default is false. -->
		<param name="isSeepModeStorageFree" value="false" />
		<!-- default: FIFO; options: FIFO PassingQ SeepageQ -->
		<param name="linkDynamics" value="FIFO" />
		<!-- The (initial) width of the links of the network. Use positive floating point values. This is used only for visualisation. -->
		<param name="linkWidth" value="30.0" />
		<!-- [comma-separated list] Defines which modes are congested modes. Technically, these are the modes that the departure handler of the netsimengine handles.  Effective cell size, effective lane width, flow capacity factor, and storage capacity factor need to be set with diligence.  Need to be vehicular modes to make sense. -->
		<param name="mainMode" value="car,train" />
		<!-- Shortens a link in the visualization, i.e. its start and end point are moved into towards the center. Does not affect traffic flow.  -->
		<param name="nodeOffset" value="0.0" />
		<!-- Number of threads used for the QSim.  Note that this setting is independent from the "global" threads setting.  In contrast to earlier versions, the non-parallel special version is no longer there. -->
		<param name="numberOfThreads" value="1" />
		<!-- Boolean. `true': stuck vehicles are removed, aborting the plan; `false': stuck vehicles are forced into the next link. `false' is probably the better choice. -->
		<param name="removeStuckVehicles" value="false" />
		<!-- If link dynamics is set as SeepageQ, set a seep mode. Default is bike. -->
		<param name="seepMode" value="bike" />
		<!-- Possible values: minOfEndtimeAndMobsimFinished, onlyUseEndtime -->
		<param name="simEndtimeInterpretation" value="null" />
		<!-- Options: maxOfStarttimeAndEarliestActivityEnd onlyUseStarttime  -->
		<param name="simStarttimeInterpretation" value="maxOfStarttimeAndEarliestActivityEnd" />
		<!-- snapshotStyle. One of: equiDist queue withHoles withHolesAndShowHoles kinematicWaves  -->
		<param name="snapshotStyle" value="equiDist" />
		<param name="snapshotperiod" value="00:00:00" />
		<param name="startTime" value="undefined" />
		<param name="storageCapacityFactor" value="1.0" />
		<!-- time in seconds.  Time after which the frontmost vehicle on a link is called `stuck' if it does not move. -->
		<param name="stuckTime" value="10.0" />
		<param name="timeStepSize" value="00:00:01" />
		<!-- options: queue withHoles kinematicWaves  -->
		<param name="trafficDynamics" value="queue" />
		<!-- Set this parameter to true if lanes should be used, false if not. -->
		<param name="useLanes" value="false" />
		<!-- If a route does not reference a vehicle, agents will use the vehicle with the same id as their own. -->
		<param name="usePersonIdForMissingVehicleId" value="true" />
		<!-- If false, the qsim accumulates fractional flows up to one flow unit in every time step.  If true, flows are updated only if an agent wants to enter the link or an agent is added to buffer. Default is true. -->
		<param name="usingFastCapacityUpdate" value="true" />
		<!-- Defines what happens if an agent wants to depart, but the specified vehicle is not available. One of: teleport wait exception  -->
		<param name="vehicleBehavior" value="teleport" />
		<!-- If vehicles should all be the same default vehicle, or come from the vehicles file, or something else.  Possible values:  defaultVehicle modeVehicleTypesFromVehiclesData fromVehiclesData -->
		<param name="vehiclesSource" value="defaultVehicle" />
	</module>
	<module name="strategy" >
		<!-- the external executable will be called with a config file as argument.  This is the pathname to a possible skeleton config, to which additional information will be added.  Can be null. -->
		<param name="ExternalExeConfigTemplate" value="null" />
		<!-- time out value (in seconds) after which matsim will consider the external strategy as failed -->
		<param name="ExternalExeTimeOut" value="3600" />
		<!-- root directory for temporary files generated by the external executable. Provided as a service; I don't think this is used by MATSim. -->
		<param name="ExternalExeTmpFileRootDir" value="null" />
		<!-- fraction of iterations where innovative strategies are switched off.  Something like 0.8 should be good.  E.g. if you run from iteration 400 to iteration 500, innovation is switched off at iteration 480 -->
		<param name="fractionOfIterationsToDisableInnovation" value="Infinity" />
		<!-- maximum number of plans per agent.  ``0'' means ``infinity''.  Currently (2010), ``5'' is a good number -->
		<param name="maxAgentPlanMemorySize" value="5" />
		<!-- strategyName of PlanSelector for plans removal.  Possible defaults: WorstPlanSelector SelectRandom SelectExpBetaForRemoval ChangeExpBetaForRemoval PathSizeLogitSelectorForRemoval . The current default, WorstPlanSelector is not a good choice from a discrete choice theoretical perspective. Alternatives, however, have not been systematically tested. kai, feb'12 -->
		<param name="planSelectorForRemoval" value="WorstPlanSelector" />
	</module>
	<module name="subtourModeChoice" >
		<!-- Only for backwards compatibility.  Defines if only trips from modes list should change mode, or all trips.  Options: fromAllModesToSpecifiedModes fromSpecifiedModesToSpecifiedModes  -->
		<param name="behavior" value="fromSpecifiedModesToSpecifiedModes" />
		<!-- Defines the chain-based modes, seperated by commas -->
		<param name="chainBasedModes" value="car,bike" />
		<!-- Defines whether car availability must be considered or not. A agent has no car only if it has no license, or never access to a car -->
		<param name="considerCarAvailability" value="false" />
		<!-- Defines all the modes available, including chain-based modes, seperated by commas -->
		<param name="modes" value="car,pt,bike,walk" />
	</module>
	<module name="swissRailRaptor" >
		<!-- Sets whether intermodal access and egress modes are selected by least cost (default) or randomly chosen out of the available access / egress modes. -->
		<param name="intermodalAccessEgressModeSelection" value="CalcLeastCostModePerStop" />
		<!-- Possible values: Default, Individual -->
		<param name="scoringParameters" value="Default" />
		<param name="transferPenaltyBaseCost" value="0.0" />
		<param name="transferPenaltyCostPerTravelTimeHour" value="0.0" />
		<param name="transferPenaltyMaxCost" value="Infinity" />
		<param name="transferPenaltyMinCost" value="-Infinity" />
		<!-- time deducted from transfer walk leg during transfers between pt legs in order to avoid missing a vehicle by a few seconds due to delays. -->
		<param name="transferWalkMargin" value="5.0" />
		<!-- If true, SwissRailRaptor tries to detect when agents cannot board a vehicle in the previous iteration because it is already full and tries to find an alternative route instead. -->
		<param name="useCapacityConstraints" value="false" />
		<param name="useIntermodalAccessEgress" value="false" />
		<param name="useModeMappingForPassengers" value="false" />
		<param name="useRangeQuery" value="false" />
	</module>
	<module name="transit" >
		<!-- The Coordinates Reference System in which the coordinates are expressed in the input file. At import, the coordinates will be converted to the coordinate system defined in "global", and willbe converted back at export. If not specified, no conversion happens. -->
		<param name="inputScheduleCRS" value="null" />
		<param name="insistingOnUsingDeprecatedAttributeFiles" value="false" />
		<!-- The type of transit routing algorithm used, may have the values: [DijkstraBased, SwissRailRaptor] -->
		<param name="routingAlgorithmType" value="SwissRailRaptor" />
		<!-- Optional input file containing additional attributes for transit lines, stored as ObjectAttributes. -->
		<param name="transitLinesAttributesFile" value="null" />
		<!-- Comma-separated list of transportation modes that are handled as transit. Defaults to 'pt'. -->
		<param name="transitModes" value="pt" />
		<!-- Input file containing the transit schedule to be simulated. -->
		<param name="transitScheduleFile" value="null" />
		<!-- Optional input file containing additional attributes for transit stop facilities, stored as ObjectAttributes. -->
		<param name="transitStopsAttributesFile" value="null" />
		<!-- Set this parameter to true if transit should be simulated, false if not. -->
		<param name="useTransit" value="true" />
		<param name="usingTransitInMobsim" value="true" />
		<!-- Input file containing the vehicles used by the departures in the transit schedule. -->
		<param name="vehiclesFile" value="null" />
	</module>
	<module name="transitRouter" >
		<!-- additional time the router allocates when a line switch happens. Can be interpreted as a 'safety' time that agents need to safely transfer from one line to another -->
		<param name="additionalTransferTime" value="0.0" />
		<!-- Factor with which direct walk generalized cost is multiplied before it is compared to the pt generalized cost.  Set to a very high value to reduce direct walk results. -->
		<param name="directWalkFactor" value="1.0" />
		<!-- step size to increase searchRadius if no stops are found -->
		<param name="extensionRadius" value="200.0" />
		<!-- maximum beeline distance between stops that agents could transfer to by walking -->
		<param name="maxBeelineWalkConnectionDistance" value="100.0" />
		<!-- the radius in which stop locations are searched, given a start or target coordinate -->
		<param name="searchRadius" value="1000.0" />
	</module>
	<module name="travelTimeCalculator" >
		<!-- (only for backwards compatibility; only used if separateModes==false && + filterModes==true)  Transport modes that will be respected by the travel time collector. 'car' is default which includes also buses from the pt simulation module. -->
		<param name="analyzedModes" value="car" />
		<param name="calculateLinkToLinkTravelTimes" value="false" />
		<param name="calculateLinkTravelTimes" value="true" />
		<!-- (only for backwards compatiblity; only used if separateModes==false)  Only modes included in analyzedModes are included. -->
		<param name="filterModes" value="false" />
		<!-- The lenght (in sec) of the time period that is splited into time bins; an additional time bin is created to aggregate all travel times collected after maxTime -->
		<param name="maxTime" value="108000" />
		<!-- (only for backwards compatibility) If false, link travel times are measured and aggregated over all vehicles using the link. -->
		<param name="separateModes" value="true" />
		<!-- How to deal with congested time bins that have no link entry events. `optimistic' assumes free speed (too optimistic); 'experimental_LastMile' is experimental and probably too pessimistic. -->
		<param name="travelTimeAggregator" value="optimistic" />
		<!-- The size of the time bin (in sec) into which the link travel times are aggregated for the router -->
		<param name="travelTimeBinSize" value="900" />
		<!-- possible values: TravelTimeCalculatorArray TravelTimeCalculatorHashMap  -->
		<param name="travelTimeCalculator" value="TravelTimeCalculatorArray" />
		<!-- How to deal with link entry times at different positions during the time bin. Currently supported: average, linearinterpolation -->
		<param name="travelTimeGetter" value="average" />
	</module>
	<module name="vehicles" >
		<param name="vehiclesFile" value="null" />
	</module>
	<module name="vspExperimental" >
		<!-- (do not use except of you have to) There was a problem with pt interaction scoring.  Some people solved it by overwriting the parameters of the pt interaction activity type.  Doing this now throws an Exception.  If you still insist on doing this, set the following to true. -->
		<param name="isAbleToOverwritePtInteractionParams" value="false" />
		<param name="isGeneratingBoardingDeniedEvent" value="false" />
		<!-- if an approximation of the opportunity cost of time is included into the radius calculation for location choice.`true' will be faster, but it is an approximation.  Default is `true'; `false' is available for backwards compatibility. -->
		<param name="isUsingOpportunityCostOfTimeForLocationChoice" value="true" />
		<param name="logitScaleParamForPlansRemoval" value="1.0" />
		<!-- Options: | ignore | info | warn | abort | .  When violating VSP defaults, this results in nothing, logfile infos, logfile warnings, or aborts.  Members of VSP should use `abort' or talk to kai. -->
		<param name="vspDefaultsCheckingLevel" value="ignore" />
		<!-- if true then writes output_events in output directory.  default is `false'. Will only work when lastIteration is multiple of events writing interval -->
		<param name="writingOutputEvents" value="true" />
	</module>

</config>

2021-05-25T16:16:28,008  INFO ControlerUtils:84 Complete config dump done.
2021-05-25T16:16:28,008  INFO ControlerUtils:85 Checking consistency of config...
2021-05-25T16:16:28,009  INFO PlanCalcScoreConfigGroup$ScoringParameterSet:1547 NO OPENING OR CLOSING TIMES DEFINED!

There is no activity type that has an opening *and* closing time (or opening time and late penalty) defined.
This usually means that the activity chains can be shifted by an arbitrary
number of hours without having an effect on the score of the plans, and thus
resulting in wrong results / traffic patterns.
If you are using MATSim without time adaptation, you can ignore this warning.


2021-05-25T16:16:28,009  INFO VspConfigConsistencyCheckerImpl:59 NOT running vsp config consistency check because vsp defaults checking level is set to IGNORE
2021-05-25T16:16:28,026  INFO ControlerUtils:87 Checking consistency of config done.
2021-05-25T16:16:28,040  INFO EventsManagerImpl:160 adding Event-Handler: ch.sbb.matsim.routing.pt.raptor.SwissRailRaptorFactory$$Lambda$182/0x0000000800e46dd0
2021-05-25T16:16:28,041  INFO EventsManagerImpl:166   org.matsim.pt.router.TransitScheduleChangedEventHandler
2021-05-25T16:16:28,041  INFO EventsManagerImpl:227     > org.matsim.pt.router.TransitScheduleChangedEvent
2021-05-25T16:16:28,041  INFO EventsManagerImpl:176 
2021-05-25T16:16:28,041  INFO EventsManagerImpl:160 adding Event-Handler: ch.sbb.matsim.routing.pt.raptor.SwissRailRaptorFactory$$Lambda$182/0x0000000800e46dd0
2021-05-25T16:16:28,042  INFO EventsManagerImpl:166   org.matsim.pt.router.TransitScheduleChangedEventHandler
2021-05-25T16:16:28,042  INFO EventsManagerImpl:227     > org.matsim.pt.router.TransitScheduleChangedEvent
2021-05-25T16:16:28,042  INFO EventsManagerImpl:176 
2021-05-25T16:16:28,043  INFO SwissRailRaptorData:84 Preparing data for SwissRailRaptor...
2021-05-25T16:16:28,062  INFO SwissRailRaptorData:211 SwissRailRaptor data preparation done. Took 0 seconds.
2021-05-25T16:16:28,063  INFO SwissRailRaptorData:212 SwissRailRaptor statistics:  #routes = 1
2021-05-25T16:16:28,063  INFO SwissRailRaptorData:213 SwissRailRaptor statistics:  #departures = 1
2021-05-25T16:16:28,064  INFO SwissRailRaptorData:214 SwissRailRaptor statistics:  #routeStops = 5
2021-05-25T16:16:28,064  INFO SwissRailRaptorData:215 SwissRailRaptor statistics:  #stopFacilities = 5
2021-05-25T16:16:28,065  INFO SwissRailRaptorData:216 SwissRailRaptor statistics:  #transfers (between routeStops) = 0
2021-05-25T16:16:28,076  INFO NetworkImpl:163  node # 1
2021-05-25T16:16:28,076  INFO NetworkImpl:163  node # 4
2021-05-25T16:16:28,080  WARN RandomizingTimeDistanceTravelDisutilityFactory:112 There will be no routing randomness. The randomization of the travel disutility requires the monetary distance rate to be different than zero. Continuing anyway.
2021-05-25T16:16:28,080  WARN RandomizingTimeDistanceTravelDisutilityFactory:117 There will be no routing randomness. The randomization of the travel disutility requires the travel time cost rate to be different than zero. Continuing anyway.
2021-05-25T16:16:28,083  INFO RandomizingTimeDistanceTravelDisutilityFactory:85  sigma: 3.0; resulting normalization: 0.011108996538242306
2021-05-25T16:16:28,098  INFO PreProcessDijkstra:118 nodes in dead ends: 0 (total nodes: 0). Done in 0 ms
2021-05-25T16:16:28,099  INFO PreProcessLandmarks:112 Putting landmarks on network...
2021-05-25T16:16:28,101  INFO LandmarkerPieSlices:96 Filling sectors...
2021-05-25T16:16:28,106  INFO LandmarkerPieSlices:100 Reducing number of landmarks from 16 to 0...
2021-05-25T16:16:28,106  INFO LandmarkerPieSlices:107 Refining landmarks...
2021-05-25T16:16:28,107  INFO LandmarkerPieSlices:109 done
2021-05-25T16:16:28,108  INFO PreProcessLandmarks:115 done in 8 ms
2021-05-25T16:16:28,109  INFO PreProcessLandmarks:117 Initializing landmarks data
2021-05-25T16:16:28,109  INFO PreProcessLandmarks:129 Calculating distance from each node to each of the 16 landmarks using 2 threads...
2021-05-25T16:16:28,110  INFO PreProcessLandmarks:163 done in 0 ms
2021-05-25T16:16:28,118  INFO PreProcessDijkstra:118 nodes in dead ends: 4 (total nodes: 5). Done in 1 ms
2021-05-25T16:16:28,119  WARN PreProcessEuclidean:59 There are links with stored length smaller than their Euclidean distance in this network. Thus, A* cannot guarantee to calculate the least-cost paths between two nodes.
2021-05-25T16:16:28,120  INFO PreProcessLandmarks:112 Putting landmarks on network...
2021-05-25T16:16:28,120  INFO LandmarkerPieSlices:96 Filling sectors...
2021-05-25T16:16:28,121  INFO LandmarkerPieSlices:163 There is no node in sector 0!
2021-05-25T16:16:28,121  INFO LandmarkerPieSlices:163 There is no node in sector 1!
2021-05-25T16:16:28,121  INFO LandmarkerPieSlices:163 There is no node in sector 2!
2021-05-25T16:16:28,121  INFO LandmarkerPieSlices:163 There is no node in sector 3!
2021-05-25T16:16:28,121  INFO LandmarkerPieSlices:163 There is no node in sector 4!
2021-05-25T16:16:28,122  INFO LandmarkerPieSlices:163 There is no node in sector 5!
2021-05-25T16:16:28,122  INFO LandmarkerPieSlices:163 There is no node in sector 6!
2021-05-25T16:16:28,122  INFO LandmarkerPieSlices:163 There is no node in sector 7!
2021-05-25T16:16:28,122  INFO LandmarkerPieSlices:163 There is no node in sector 8!
2021-05-25T16:16:28,122  INFO LandmarkerPieSlices:163 There is no node in sector 9!
2021-05-25T16:16:28,122  INFO LandmarkerPieSlices:163 There is no node in sector 10!
2021-05-25T16:16:28,123  INFO LandmarkerPieSlices:163 There is no node in sector 11!
2021-05-25T16:16:28,123  INFO LandmarkerPieSlices:163 There is no node in sector 12!
2021-05-25T16:16:28,123  INFO LandmarkerPieSlices:163 There is no node in sector 13!
2021-05-25T16:16:28,123  INFO LandmarkerPieSlices:163 There is no node in sector 14!
2021-05-25T16:16:28,123  INFO LandmarkerPieSlices:100 Reducing number of landmarks from 16 to 1...
2021-05-25T16:16:28,124  INFO LandmarkerPieSlices:107 Refining landmarks...
2021-05-25T16:16:28,124  INFO LandmarkerPieSlices:109 done
2021-05-25T16:16:28,124  INFO PreProcessLandmarks:115 done in 4 ms
2021-05-25T16:16:28,124  INFO PreProcessLandmarks:117 Initializing landmarks data
2021-05-25T16:16:28,124  INFO PreProcessLandmarks:129 Calculating distance from each node to each of the 16 landmarks using 2 threads...
2021-05-25T16:16:28,125  INFO PreProcessLandmarks:139 wait for landmarks Calculator to finish...
2021-05-25T16:16:28,127  INFO PreProcessLandmarks:163 done in 3 ms
2021-05-25T16:16:28,132  INFO RandomizingTimeDistanceTravelDisutilityFactory:85  sigma: 3.0; resulting normalization: 0.011108996538242306
2021-05-25T16:16:28,134  INFO Counter:74 [PersonPrepareForSim] handled person # 0
2021-05-25T16:16:28,135  INFO AbstractController:133 ###################################################
2021-05-25T16:16:28,135  INFO AbstractController:134 ### ITERATION 0 BEGINS
2021-05-25T16:16:28,137  INFO ControlerListenerManagerImpl:145 calling notifyIterationStarts on org.matsim.analysis.LegHistogramListener
2021-05-25T16:16:28,137  INFO ControlerListenerManagerImpl:145 calling notifyIterationStarts on org.matsim.analysis.LinkStatsControlerListener
2021-05-25T16:16:28,138  INFO ControlerListenerManagerImpl:145 calling notifyIterationStarts on org.matsim.core.replanning.ReplanningContextImpl
2021-05-25T16:16:28,138  INFO ControlerListenerManagerImpl:145 calling notifyIterationStarts on org.matsim.core.scoring.ScoringFunctionsForPopulation$1
2021-05-25T16:16:28,138  INFO ControlerListenerManagerImpl:145 calling notifyIterationStarts on org.matsim.core.scoring.ExperiencedPlansServiceImpl$1
2021-05-25T16:16:28,138  INFO ControlerListenerManagerImpl:148 [it.0] all ControlerIterationStartsListeners called.
2021-05-25T16:16:28,139  INFO ControlerListenerManagerImpl:224 calling notifyBeforeMobsim on org.matsim.core.controler.corelisteners.EventsHandlingImpl
2021-05-25T16:16:28,140  INFO EventsManagerImpl:190 resetting Event-Handlers
2021-05-25T16:16:28,140  INFO EventsManagerImpl:197   org.matsim.core.trafficmonitoring.TravelTimeCalculator
2021-05-25T16:16:28,140  INFO EventsManagerImpl:197   org.matsim.core.scoring.EventsToLegsAndActivities
2021-05-25T16:16:28,140  INFO EventsManagerImpl:197   org.matsim.analysis.VolumesAnalyzer
2021-05-25T16:16:28,141  INFO EventsManagerImpl:197   org.matsim.core.scoring.ScoringFunctionsForPopulation
2021-05-25T16:16:28,141  INFO EventsManagerImpl:197   org.matsim.analysis.LegHistogram
2021-05-25T16:16:28,141  INFO EventsManagerImpl:197   org.matsim.analysis.CalcLegTimes
2021-05-25T16:16:28,141  INFO EventsManagerImpl:197   ch.sbb.matsim.routing.pt.raptor.SwissRailRaptorFactory$$Lambda$182/0x0000000800e46dd0
2021-05-25T16:16:28,146  INFO EventsManagerImpl:160 adding Event-Handler: org.matsim.core.events.algorithms.EventWriterXML
2021-05-25T16:16:28,146  INFO EventsManagerImpl:166   org.matsim.core.events.algorithms.EventWriter
2021-05-25T16:16:28,146  INFO EventsManagerImpl:166   org.matsim.core.events.handler.BasicEventHandler
2021-05-25T16:16:28,147  INFO EventsManagerImpl:227     > org.matsim.api.core.v01.events.Event
2021-05-25T16:16:28,147  INFO EventsManagerImpl:176 
2021-05-25T16:16:28,147  INFO EventsManagerImpl:160 adding Event-Handler: org.matsim.core.events.algorithms.EventWriterXML
2021-05-25T16:16:28,147  INFO EventsManagerImpl:166   org.matsim.core.events.algorithms.EventWriter
2021-05-25T16:16:28,147  INFO EventsManagerImpl:166   org.matsim.core.events.handler.BasicEventHandler
2021-05-25T16:16:28,147  INFO EventsManagerImpl:227     > org.matsim.api.core.v01.events.Event
2021-05-25T16:16:28,148  INFO EventsManagerImpl:176 
2021-05-25T16:16:28,148  INFO ControlerListenerManagerImpl:224 calling notifyBeforeMobsim on org.matsim.core.controler.corelisteners.PlansDumpingImpl
2021-05-25T16:16:28,148  INFO PlansDumpingImpl:76 dumping plans...
2021-05-25T16:16:28,383  INFO PopulationWriter:144 Population written to: test/output/ch/sbb/matsim/mobsim/qsim/pt/SBBTransitQSimEngineIntegrationTest/testIntegration_misconfiguration/ITERS/it.0/0.plans.xml.gz
2021-05-25T16:16:28,383  INFO Counter:74 [PopulationWriter] dumped person # 0
2021-05-25T16:16:28,384  INFO PlansDumpingImpl:93 finished plans dump.
2021-05-25T16:16:28,384  INFO ControlerListenerManagerImpl:229 calling notifyBeforeMobsim on org.matsim.core.population.VspPlansCleaner
2021-05-25T16:16:28,384  INFO ControlerListenerManagerImpl:232 [it.0] all ControlerBeforeMobsimListeners called.
2021-05-25T16:16:28,386  INFO RandomizingTimeDistanceTravelDisutilityFactory:85  sigma: 3.0; resulting normalization: 0.011108996538242306
2021-05-25T16:16:28,386  INFO RandomizingTimeDistanceTravelDisutilityFactory:85  sigma: 3.0; resulting normalization: 0.011108996538242306
2021-05-25T16:16:28,387  INFO Counter:74 [PersonPrepareForSim] handled person # 0
2021-05-25T16:16:28,502  INFO MobsimListenerManager:49 calling addQueueSimulationListener
2021-05-25T16:16:28,503  INFO MobsimListenerManager:53   assigned class org.matsim.core.mobsim.framework.listeners.MobsimListener to interface org.matsim.core.mobsim.framework.listeners.MobsimInitializedListener
2021-05-25T16:16:28,503  INFO MobsimListenerManager:53   assigned class org.matsim.core.mobsim.framework.listeners.MobsimListener to interface org.matsim.core.mobsim.framework.listeners.MobsimListener
2021-05-25T16:16:28,503  INFO MobsimListenerManager:53   assigned class org.matsim.core.mobsim.framework.listeners.MobsimListener to interface org.matsim.vis.snapshotwriters.SnapshotWriterManager
2021-05-25T16:16:28,503  INFO MobsimListenerManager:53   assigned class org.matsim.core.mobsim.framework.listeners.MobsimListener to interface org.matsim.core.mobsim.framework.listeners.MobsimAfterSimStepListener
2021-05-25T16:16:28,504  INFO MobsimListenerManager:53   assigned class org.matsim.core.mobsim.framework.listeners.MobsimListener to interface org.matsim.core.mobsim.framework.listeners.MobsimBeforeCleanupListener
2021-05-25T16:16:28,534  INFO QSimProvider:115 Added MobsimEngine class org.matsim.core.mobsim.qsim.ActivityEngineDefaultImpl
2021-05-25T16:16:28,534  INFO QSimProvider:121 Added Activityhandler class org.matsim.core.mobsim.qsim.ActivityEngineDefaultImpl
2021-05-25T16:16:28,535  INFO QSimProvider:127 Added DepartureHandler class org.matsim.core.mobsim.qsim.qnetsimengine.VehicularDepartureHandler
2021-05-25T16:16:28,535  INFO QSimProvider:115 Added MobsimEngine class org.matsim.core.mobsim.qsim.qnetsimengine.QNetsimEngineWithThreadpool
2021-05-25T16:16:28,535  INFO QSimProvider:115 Added MobsimEngine class org.matsim.core.mobsim.qsim.DefaultTeleportationEngine
2021-05-25T16:16:28,535  INFO QSimProvider:127 Added DepartureHandler class org.matsim.core.mobsim.qsim.DefaultTeleportationEngine
2021-05-25T16:16:28,535  INFO QSimProvider:133 Added AgentSource class org.matsim.core.mobsim.qsim.agents.PopulationAgentSource
2021-05-25T16:16:28,536  INFO MobsimListenerManager:49 calling addQueueSimulationListener
2021-05-25T16:16:28,536  INFO MobsimListenerManager:53   assigned class org.matsim.core.mobsim.framework.listeners.MobsimListener to interface org.matsim.core.mobsim.qsim.messagequeueengine.MessageQueueEngine
2021-05-25T16:16:28,536  INFO MobsimListenerManager:53   assigned class org.matsim.core.mobsim.framework.listeners.MobsimListener to interface org.matsim.core.mobsim.framework.listeners.MobsimListener
2021-05-25T16:16:28,536  INFO MobsimListenerManager:53   assigned class org.matsim.core.mobsim.framework.listeners.MobsimListener to interface org.matsim.core.mobsim.framework.listeners.MobsimBeforeSimStepListener
2021-05-25T16:16:28,536  INFO QSimProvider:139 Added MobsimListener class org.matsim.core.mobsim.qsim.messagequeueengine.MessageQueueEngine
2021-05-25T16:16:28,538  INFO QSimProvider:115 Added MobsimEngine class ch.sbb.matsim.mobsim.qsim.pt.SBBTransitQSimEngine
2021-05-25T16:16:28,538  INFO QSimProvider:127 Added DepartureHandler class ch.sbb.matsim.mobsim.qsim.pt.SBBTransitQSimEngine
2021-05-25T16:16:28,539  INFO QSimProvider:133 Added AgentSource class ch.sbb.matsim.mobsim.qsim.pt.SBBTransitQSimEngine
2021-05-25T16:16:28,541 ERROR QSim:344 got exception while cleaning up
java.lang.NullPointerException: Cannot invoke "java.util.List.iterator()" because the return value of "org.matsim.core.mobsim.qsim.qnetsimengine.AbstractQNetsimEngine.getQnetsimEngineRunner()" is null
	at org.matsim.core.mobsim.qsim.qnetsimengine.AbstractQNetsimEngine.afterSim(AbstractQNetsimEngine.java:183) ~[matsim-13.0.jar:?]
	at org.matsim.core.mobsim.qsim.QSim.cleanupSim(QSim.java:341) [matsim-13.0.jar:?]
	at org.matsim.core.mobsim.qsim.QSim.run(QSim.java:261) [matsim-13.0.jar:?]
	at org.matsim.core.controler.NewControler.runMobSim(NewControler.java:124) [matsim-13.0.jar:?]
	at org.matsim.core.controler.AbstractController$8.run(AbstractController.java:211) [matsim-13.0.jar:?]
	at org.matsim.core.controler.AbstractController.iterationStep(AbstractController.java:243) [matsim-13.0.jar:?]
	at org.matsim.core.controler.AbstractController.mobsim(AbstractController.java:207) [matsim-13.0.jar:?]
	at org.matsim.core.controler.AbstractController.iteration(AbstractController.java:154) [matsim-13.0.jar:?]
	at org.matsim.core.controler.AbstractController.doIterations(AbstractController.java:121) [matsim-13.0.jar:?]
	at org.matsim.core.controler.AbstractController$1.run(AbstractController.java:81) [matsim-13.0.jar:?]
	at org.matsim.core.controler.MatsimRuntimeModifications.run(MatsimRuntimeModifications.java:69) [matsim-13.0.jar:?]
	at org.matsim.core.controler.MatsimRuntimeModifications.run(MatsimRuntimeModifications.java:52) [matsim-13.0.jar:?]
	at org.matsim.core.controler.AbstractController.run(AbstractController.java:89) [matsim-13.0.jar:?]
	at org.matsim.core.controler.NewControler.run(NewControler.java:82) [matsim-13.0.jar:?]
	at org.matsim.core.controler.Controler.run(Controler.java:249) [matsim-13.0.jar:?]
	at ch.sbb.matsim.mobsim.qsim.pt.SBBTransitQSimEngineIntegrationTest.testIntegration_misconfiguration(SBBTransitQSimEngineIntegrationTest.java:74) [test-classes/:?]
	at jdk.internal.reflect.NativeMethodAccessorImpl.invoke0(Native Method) ~[?:?]
	at jdk.internal.reflect.NativeMethodAccessorImpl.invoke(NativeMethodAccessorImpl.java:64) ~[?:?]
	at jdk.internal.reflect.DelegatingMethodAccessorImpl.invoke(DelegatingMethodAccessorImpl.java:43) ~[?:?]
	at java.lang.reflect.Method.invoke(Method.java:564) ~[?:?]
	at org.junit.runners.model.FrameworkMethod$1.runReflectiveCall(FrameworkMethod.java:59) [junit-4.13.1.jar:4.13.1]
	at org.junit.internal.runners.model.ReflectiveCallable.run(ReflectiveCallable.java:12) [junit-4.13.1.jar:4.13.1]
	at org.junit.runners.model.FrameworkMethod.invokeExplosively(FrameworkMethod.java:56) [junit-4.13.1.jar:4.13.1]
	at org.junit.internal.runners.statements.InvokeMethod.evaluate(InvokeMethod.java:17) [junit-4.13.1.jar:4.13.1]
	at org.junit.rules.TestWatcher$1.evaluate(TestWatcher.java:61) [junit-4.13.1.jar:4.13.1]
	at org.junit.runners.ParentRunner$3.evaluate(ParentRunner.java:306) [junit-4.13.1.jar:4.13.1]
	at org.junit.runners.BlockJUnit4ClassRunner$1.evaluate(BlockJUnit4ClassRunner.java:100) [junit-4.13.1.jar:4.13.1]
	at org.junit.runners.ParentRunner.runLeaf(ParentRunner.java:366) [junit-4.13.1.jar:4.13.1]
	at org.junit.runners.BlockJUnit4ClassRunner.runChild(BlockJUnit4ClassRunner.java:103) [junit-4.13.1.jar:4.13.1]
	at org.junit.runners.BlockJUnit4ClassRunner.runChild(BlockJUnit4ClassRunner.java:63) [junit-4.13.1.jar:4.13.1]
	at org.junit.runners.ParentRunner$4.run(ParentRunner.java:331) [junit-4.13.1.jar:4.13.1]
	at org.junit.runners.ParentRunner$1.schedule(ParentRunner.java:79) [junit-4.13.1.jar:4.13.1]
	at org.junit.runners.ParentRunner.runChildren(ParentRunner.java:329) [junit-4.13.1.jar:4.13.1]
	at org.junit.runners.ParentRunner.access$100(ParentRunner.java:66) [junit-4.13.1.jar:4.13.1]
	at org.junit.runners.ParentRunner$2.evaluate(ParentRunner.java:293) [junit-4.13.1.jar:4.13.1]
	at org.junit.runners.ParentRunner$3.evaluate(ParentRunner.java:306) [junit-4.13.1.jar:4.13.1]
	at org.junit.runners.ParentRunner.run(ParentRunner.java:413) [junit-4.13.1.jar:4.13.1]
	at org.apache.maven.surefire.junit4.JUnit4Provider.execute(JUnit4Provider.java:252) [surefire-junit4-2.12.4.jar:2.12.4]
	at org.apache.maven.surefire.junit4.JUnit4Provider.executeTestSet(JUnit4Provider.java:141) [surefire-junit4-2.12.4.jar:2.12.4]
	at org.apache.maven.surefire.junit4.JUnit4Provider.invoke(JUnit4Provider.java:112) [surefire-junit4-2.12.4.jar:2.12.4]
	at jdk.internal.reflect.NativeMethodAccessorImpl.invoke0(Native Method) ~[?:?]
	at jdk.internal.reflect.NativeMethodAccessorImpl.invoke(NativeMethodAccessorImpl.java:64) ~[?:?]
	at jdk.internal.reflect.DelegatingMethodAccessorImpl.invoke(DelegatingMethodAccessorImpl.java:43) ~[?:?]
	at java.lang.reflect.Method.invoke(Method.java:564) ~[?:?]
	at org.apache.maven.surefire.util.ReflectionUtils.invokeMethodWithArray(ReflectionUtils.java:189) [surefire-api-2.12.4.jar:2.12.4]
	at org.apache.maven.surefire.booter.ProviderFactory$ProviderProxy.invoke(ProviderFactory.java:165) [surefire-booter-2.12.4.jar:2.12.4]
	at org.apache.maven.surefire.booter.ProviderFactory.invokeProvider(ProviderFactory.java:85) [surefire-booter-2.12.4.jar:2.12.4]
	at org.apache.maven.surefire.booter.ForkedBooter.runSuitesInProcess(ForkedBooter.java:115) [surefire-booter-2.12.4.jar:2.12.4]
	at org.apache.maven.surefire.booter.ForkedBooter.main(ForkedBooter.java:75) [surefire-booter-2.12.4.jar:2.12.4]
2021-05-25T16:16:28,560  WARN QSim:263 exception in finally block - this may be a follow-up exception of an exception thrown in the try block.
java.lang.RuntimeException: got exception while cleaning up the QSim. Please check the error messages above for details.
	at org.matsim.core.mobsim.qsim.QSim.cleanupSim(QSim.java:349) ~[matsim-13.0.jar:?]
	at org.matsim.core.mobsim.qsim.QSim.run(QSim.java:261) [matsim-13.0.jar:?]
	at org.matsim.core.controler.NewControler.runMobSim(NewControler.java:124) [matsim-13.0.jar:?]
	at org.matsim.core.controler.AbstractController$8.run(AbstractController.java:211) [matsim-13.0.jar:?]
	at org.matsim.core.controler.AbstractController.iterationStep(AbstractController.java:243) [matsim-13.0.jar:?]
	at org.matsim.core.controler.AbstractController.mobsim(AbstractController.java:207) [matsim-13.0.jar:?]
	at org.matsim.core.controler.AbstractController.iteration(AbstractController.java:154) [matsim-13.0.jar:?]
	at org.matsim.core.controler.AbstractController.doIterations(AbstractController.java:121) [matsim-13.0.jar:?]
	at org.matsim.core.controler.AbstractController$1.run(AbstractController.java:81) [matsim-13.0.jar:?]
	at org.matsim.core.controler.MatsimRuntimeModifications.run(MatsimRuntimeModifications.java:69) [matsim-13.0.jar:?]
	at org.matsim.core.controler.MatsimRuntimeModifications.run(MatsimRuntimeModifications.java:52) [matsim-13.0.jar:?]
	at org.matsim.core.controler.AbstractController.run(AbstractController.java:89) [matsim-13.0.jar:?]
	at org.matsim.core.controler.NewControler.run(NewControler.java:82) [matsim-13.0.jar:?]
	at org.matsim.core.controler.Controler.run(Controler.java:249) [matsim-13.0.jar:?]
	at ch.sbb.matsim.mobsim.qsim.pt.SBBTransitQSimEngineIntegrationTest.testIntegration_misconfiguration(SBBTransitQSimEngineIntegrationTest.java:74) [test-classes/:?]
	at jdk.internal.reflect.NativeMethodAccessorImpl.invoke0(Native Method) ~[?:?]
	at jdk.internal.reflect.NativeMethodAccessorImpl.invoke(NativeMethodAccessorImpl.java:64) ~[?:?]
	at jdk.internal.reflect.DelegatingMethodAccessorImpl.invoke(DelegatingMethodAccessorImpl.java:43) ~[?:?]
	at java.lang.reflect.Method.invoke(Method.java:564) ~[?:?]
	at org.junit.runners.model.FrameworkMethod$1.runReflectiveCall(FrameworkMethod.java:59) [junit-4.13.1.jar:4.13.1]
	at org.junit.internal.runners.model.ReflectiveCallable.run(ReflectiveCallable.java:12) [junit-4.13.1.jar:4.13.1]
	at org.junit.runners.model.FrameworkMethod.invokeExplosively(FrameworkMethod.java:56) [junit-4.13.1.jar:4.13.1]
	at org.junit.internal.runners.statements.InvokeMethod.evaluate(InvokeMethod.java:17) [junit-4.13.1.jar:4.13.1]
	at org.junit.rules.TestWatcher$1.evaluate(TestWatcher.java:61) [junit-4.13.1.jar:4.13.1]
	at org.junit.runners.ParentRunner$3.evaluate(ParentRunner.java:306) [junit-4.13.1.jar:4.13.1]
	at org.junit.runners.BlockJUnit4ClassRunner$1.evaluate(BlockJUnit4ClassRunner.java:100) [junit-4.13.1.jar:4.13.1]
	at org.junit.runners.ParentRunner.runLeaf(ParentRunner.java:366) [junit-4.13.1.jar:4.13.1]
	at org.junit.runners.BlockJUnit4ClassRunner.runChild(BlockJUnit4ClassRunner.java:103) [junit-4.13.1.jar:4.13.1]
	at org.junit.runners.BlockJUnit4ClassRunner.runChild(BlockJUnit4ClassRunner.java:63) [junit-4.13.1.jar:4.13.1]
	at org.junit.runners.ParentRunner$4.run(ParentRunner.java:331) [junit-4.13.1.jar:4.13.1]
	at org.junit.runners.ParentRunner$1.schedule(ParentRunner.java:79) [junit-4.13.1.jar:4.13.1]
	at org.junit.runners.ParentRunner.runChildren(ParentRunner.java:329) [junit-4.13.1.jar:4.13.1]
	at org.junit.runners.ParentRunner.access$100(ParentRunner.java:66) [junit-4.13.1.jar:4.13.1]
	at org.junit.runners.ParentRunner$2.evaluate(ParentRunner.java:293) [junit-4.13.1.jar:4.13.1]
	at org.junit.runners.ParentRunner$3.evaluate(ParentRunner.java:306) [junit-4.13.1.jar:4.13.1]
	at org.junit.runners.ParentRunner.run(ParentRunner.java:413) [junit-4.13.1.jar:4.13.1]
	at org.apache.maven.surefire.junit4.JUnit4Provider.execute(JUnit4Provider.java:252) [surefire-junit4-2.12.4.jar:2.12.4]
	at org.apache.maven.surefire.junit4.JUnit4Provider.executeTestSet(JUnit4Provider.java:141) [surefire-junit4-2.12.4.jar:2.12.4]
	at org.apache.maven.surefire.junit4.JUnit4Provider.invoke(JUnit4Provider.java:112) [surefire-junit4-2.12.4.jar:2.12.4]
	at jdk.internal.reflect.NativeMethodAccessorImpl.invoke0(Native Method) ~[?:?]
	at jdk.internal.reflect.NativeMethodAccessorImpl.invoke(NativeMethodAccessorImpl.java:64) ~[?:?]
	at jdk.internal.reflect.DelegatingMethodAccessorImpl.invoke(DelegatingMethodAccessorImpl.java:43) ~[?:?]
	at java.lang.reflect.Method.invoke(Method.java:564) ~[?:?]
	at org.apache.maven.surefire.util.ReflectionUtils.invokeMethodWithArray(ReflectionUtils.java:189) [surefire-api-2.12.4.jar:2.12.4]
	at org.apache.maven.surefire.booter.ProviderFactory$ProviderProxy.invoke(ProviderFactory.java:165) [surefire-booter-2.12.4.jar:2.12.4]
	at org.apache.maven.surefire.booter.ProviderFactory.invokeProvider(ProviderFactory.java:85) [surefire-booter-2.12.4.jar:2.12.4]
	at org.apache.maven.surefire.booter.ForkedBooter.runSuitesInProcess(ForkedBooter.java:115) [surefire-booter-2.12.4.jar:2.12.4]
	at org.apache.maven.surefire.booter.ForkedBooter.main(ForkedBooter.java:75) [surefire-booter-2.12.4.jar:2.12.4]
2021-05-25T16:16:28,561 ERROR AbstractController:222 Mobsim did not complete normally! afterMobsimListeners will be called anyway.
java.lang.RuntimeException: There are modes configured to be deterministic service modes as well as qsim main modes. This will not work! common modes = train
	at ch.sbb.matsim.mobsim.qsim.pt.SBBTransitQSimEngine.createVehiclesAndDrivers(SBBTransitQSimEngine.java:210) ~[classes/:?]
	at ch.sbb.matsim.mobsim.qsim.pt.SBBTransitQSimEngine.insertAgentsIntoMobsim(SBBTransitQSimEngine.java:123) ~[classes/:?]
	at org.matsim.core.mobsim.qsim.QSim.createAgents(QSim.java:293) ~[matsim-13.0.jar:?]
	at org.matsim.core.mobsim.qsim.QSim.prepareSim(QSim.java:278) ~[matsim-13.0.jar:?]
	at org.matsim.core.mobsim.qsim.QSim.run(QSim.java:237) ~[matsim-13.0.jar:?]
	at org.matsim.core.controler.NewControler.runMobSim(NewControler.java:124) ~[matsim-13.0.jar:?]
	at org.matsim.core.controler.AbstractController$8.run(AbstractController.java:211) ~[matsim-13.0.jar:?]
	at org.matsim.core.controler.AbstractController.iterationStep(AbstractController.java:243) ~[matsim-13.0.jar:?]
	at org.matsim.core.controler.AbstractController.mobsim(AbstractController.java:207) [matsim-13.0.jar:?]
	at org.matsim.core.controler.AbstractController.iteration(AbstractController.java:154) [matsim-13.0.jar:?]
	at org.matsim.core.controler.AbstractController.doIterations(AbstractController.java:121) [matsim-13.0.jar:?]
	at org.matsim.core.controler.AbstractController$1.run(AbstractController.java:81) [matsim-13.0.jar:?]
	at org.matsim.core.controler.MatsimRuntimeModifications.run(MatsimRuntimeModifications.java:69) [matsim-13.0.jar:?]
	at org.matsim.core.controler.MatsimRuntimeModifications.run(MatsimRuntimeModifications.java:52) [matsim-13.0.jar:?]
	at org.matsim.core.controler.AbstractController.run(AbstractController.java:89) [matsim-13.0.jar:?]
	at org.matsim.core.controler.NewControler.run(NewControler.java:82) [matsim-13.0.jar:?]
	at org.matsim.core.controler.Controler.run(Controler.java:249) [matsim-13.0.jar:?]
	at ch.sbb.matsim.mobsim.qsim.pt.SBBTransitQSimEngineIntegrationTest.testIntegration_misconfiguration(SBBTransitQSimEngineIntegrationTest.java:74) [test-classes/:?]
	at jdk.internal.reflect.NativeMethodAccessorImpl.invoke0(Native Method) ~[?:?]
	at jdk.internal.reflect.NativeMethodAccessorImpl.invoke(NativeMethodAccessorImpl.java:64) ~[?:?]
	at jdk.internal.reflect.DelegatingMethodAccessorImpl.invoke(DelegatingMethodAccessorImpl.java:43) ~[?:?]
	at java.lang.reflect.Method.invoke(Method.java:564) ~[?:?]
	at org.junit.runners.model.FrameworkMethod$1.runReflectiveCall(FrameworkMethod.java:59) [junit-4.13.1.jar:4.13.1]
	at org.junit.internal.runners.model.ReflectiveCallable.run(ReflectiveCallable.java:12) [junit-4.13.1.jar:4.13.1]
	at org.junit.runners.model.FrameworkMethod.invokeExplosively(FrameworkMethod.java:56) [junit-4.13.1.jar:4.13.1]
	at org.junit.internal.runners.statements.InvokeMethod.evaluate(InvokeMethod.java:17) [junit-4.13.1.jar:4.13.1]
	at org.junit.rules.TestWatcher$1.evaluate(TestWatcher.java:61) [junit-4.13.1.jar:4.13.1]
	at org.junit.runners.ParentRunner$3.evaluate(ParentRunner.java:306) [junit-4.13.1.jar:4.13.1]
	at org.junit.runners.BlockJUnit4ClassRunner$1.evaluate(BlockJUnit4ClassRunner.java:100) [junit-4.13.1.jar:4.13.1]
	at org.junit.runners.ParentRunner.runLeaf(ParentRunner.java:366) [junit-4.13.1.jar:4.13.1]
	at org.junit.runners.BlockJUnit4ClassRunner.runChild(BlockJUnit4ClassRunner.java:103) [junit-4.13.1.jar:4.13.1]
	at org.junit.runners.BlockJUnit4ClassRunner.runChild(BlockJUnit4ClassRunner.java:63) [junit-4.13.1.jar:4.13.1]
	at org.junit.runners.ParentRunner$4.run(ParentRunner.java:331) [junit-4.13.1.jar:4.13.1]
	at org.junit.runners.ParentRunner$1.schedule(ParentRunner.java:79) [junit-4.13.1.jar:4.13.1]
	at org.junit.runners.ParentRunner.runChildren(ParentRunner.java:329) [junit-4.13.1.jar:4.13.1]
	at org.junit.runners.ParentRunner.access$100(ParentRunner.java:66) [junit-4.13.1.jar:4.13.1]
	at org.junit.runners.ParentRunner$2.evaluate(ParentRunner.java:293) [junit-4.13.1.jar:4.13.1]
	at org.junit.runners.ParentRunner$3.evaluate(ParentRunner.java:306) [junit-4.13.1.jar:4.13.1]
	at org.junit.runners.ParentRunner.run(ParentRunner.java:413) [junit-4.13.1.jar:4.13.1]
	at org.apache.maven.surefire.junit4.JUnit4Provider.execute(JUnit4Provider.java:252) [surefire-junit4-2.12.4.jar:2.12.4]
	at org.apache.maven.surefire.junit4.JUnit4Provider.executeTestSet(JUnit4Provider.java:141) [surefire-junit4-2.12.4.jar:2.12.4]
	at org.apache.maven.surefire.junit4.JUnit4Provider.invoke(JUnit4Provider.java:112) [surefire-junit4-2.12.4.jar:2.12.4]
	at jdk.internal.reflect.NativeMethodAccessorImpl.invoke0(Native Method) ~[?:?]
	at jdk.internal.reflect.NativeMethodAccessorImpl.invoke(NativeMethodAccessorImpl.java:64) ~[?:?]
	at jdk.internal.reflect.DelegatingMethodAccessorImpl.invoke(DelegatingMethodAccessorImpl.java:43) ~[?:?]
	at java.lang.reflect.Method.invoke(Method.java:564) ~[?:?]
	at org.apache.maven.surefire.util.ReflectionUtils.invokeMethodWithArray(ReflectionUtils.java:189) [surefire-api-2.12.4.jar:2.12.4]
	at org.apache.maven.surefire.booter.ProviderFactory$ProviderProxy.invoke(ProviderFactory.java:165) [surefire-booter-2.12.4.jar:2.12.4]
	at org.apache.maven.surefire.booter.ProviderFactory.invokeProvider(ProviderFactory.java:85) [surefire-booter-2.12.4.jar:2.12.4]
	at org.apache.maven.surefire.booter.ForkedBooter.runSuitesInProcess(ForkedBooter.java:115) [surefire-booter-2.12.4.jar:2.12.4]
	at org.apache.maven.surefire.booter.ForkedBooter.main(ForkedBooter.java:75) [surefire-booter-2.12.4.jar:2.12.4]
2021-05-25T16:16:28,564  INFO AbstractController$9:234 ### ITERATION 0 fires after mobsim event
2021-05-25T16:16:28,565  INFO ControlerListenerManagerImpl:248 calling notifyAfterMobsim on org.matsim.analysis.LegTimesControlerListener
2021-05-25T16:16:28,570  INFO LegTimesControlerListener:50 [0] average trip (probably: leg) duration is: 0 seconds = 00:00:00
2021-05-25T16:16:28,570  INFO ControlerListenerManagerImpl:248 calling notifyAfterMobsim on org.matsim.core.events.MobsimScopeEventHandling
2021-05-25T16:16:28,572  INFO ControlerListenerManagerImpl:248 calling notifyAfterMobsim on org.matsim.core.scoring.EventsToActivities$1
2021-05-25T16:16:28,573  INFO ControlerListenerManagerImpl:251 [it.0] all ControlerAfterMobsimListeners called.
2021-05-25T16:16:28,573 ERROR MatsimRuntimeModifications:75 Getting uncaught Exception in Thread main
java.lang.RuntimeException: There are modes configured to be deterministic service modes as well as qsim main modes. This will not work! common modes = train
	at ch.sbb.matsim.mobsim.qsim.pt.SBBTransitQSimEngine.createVehiclesAndDrivers(SBBTransitQSimEngine.java:210) ~[classes/:?]
	at ch.sbb.matsim.mobsim.qsim.pt.SBBTransitQSimEngine.insertAgentsIntoMobsim(SBBTransitQSimEngine.java:123) ~[classes/:?]
	at org.matsim.core.mobsim.qsim.QSim.createAgents(QSim.java:293) ~[matsim-13.0.jar:?]
	at org.matsim.core.mobsim.qsim.QSim.prepareSim(QSim.java:278) ~[matsim-13.0.jar:?]
	at org.matsim.core.mobsim.qsim.QSim.run(QSim.java:237) ~[matsim-13.0.jar:?]
	at org.matsim.core.controler.NewControler.runMobSim(NewControler.java:124) ~[matsim-13.0.jar:?]
	at org.matsim.core.controler.AbstractController$8.run(AbstractController.java:211) ~[matsim-13.0.jar:?]
	at org.matsim.core.controler.AbstractController.iterationStep(AbstractController.java:243) ~[matsim-13.0.jar:?]
	at org.matsim.core.controler.AbstractController.mobsim(AbstractController.java:207) ~[matsim-13.0.jar:?]
	at org.matsim.core.controler.AbstractController.iteration(AbstractController.java:154) ~[matsim-13.0.jar:?]
	at org.matsim.core.controler.AbstractController.doIterations(AbstractController.java:121) ~[matsim-13.0.jar:?]
	at org.matsim.core.controler.AbstractController$1.run(AbstractController.java:81) ~[matsim-13.0.jar:?]
	at org.matsim.core.controler.MatsimRuntimeModifications.run(MatsimRuntimeModifications.java:69) [matsim-13.0.jar:?]
	at org.matsim.core.controler.MatsimRuntimeModifications.run(MatsimRuntimeModifications.java:52) [matsim-13.0.jar:?]
	at org.matsim.core.controler.AbstractController.run(AbstractController.java:89) [matsim-13.0.jar:?]
	at org.matsim.core.controler.NewControler.run(NewControler.java:82) [matsim-13.0.jar:?]
	at org.matsim.core.controler.Controler.run(Controler.java:249) [matsim-13.0.jar:?]
	at ch.sbb.matsim.mobsim.qsim.pt.SBBTransitQSimEngineIntegrationTest.testIntegration_misconfiguration(SBBTransitQSimEngineIntegrationTest.java:74) [test-classes/:?]
	at jdk.internal.reflect.NativeMethodAccessorImpl.invoke0(Native Method) ~[?:?]
	at jdk.internal.reflect.NativeMethodAccessorImpl.invoke(NativeMethodAccessorImpl.java:64) ~[?:?]
	at jdk.internal.reflect.DelegatingMethodAccessorImpl.invoke(DelegatingMethodAccessorImpl.java:43) ~[?:?]
	at java.lang.reflect.Method.invoke(Method.java:564) ~[?:?]
	at org.junit.runners.model.FrameworkMethod$1.runReflectiveCall(FrameworkMethod.java:59) [junit-4.13.1.jar:4.13.1]
	at org.junit.internal.runners.model.ReflectiveCallable.run(ReflectiveCallable.java:12) [junit-4.13.1.jar:4.13.1]
	at org.junit.runners.model.FrameworkMethod.invokeExplosively(FrameworkMethod.java:56) [junit-4.13.1.jar:4.13.1]
	at org.junit.internal.runners.statements.InvokeMethod.evaluate(InvokeMethod.java:17) [junit-4.13.1.jar:4.13.1]
	at org.junit.rules.TestWatcher$1.evaluate(TestWatcher.java:61) [junit-4.13.1.jar:4.13.1]
	at org.junit.runners.ParentRunner$3.evaluate(ParentRunner.java:306) [junit-4.13.1.jar:4.13.1]
	at org.junit.runners.BlockJUnit4ClassRunner$1.evaluate(BlockJUnit4ClassRunner.java:100) [junit-4.13.1.jar:4.13.1]
	at org.junit.runners.ParentRunner.runLeaf(ParentRunner.java:366) [junit-4.13.1.jar:4.13.1]
	at org.junit.runners.BlockJUnit4ClassRunner.runChild(BlockJUnit4ClassRunner.java:103) [junit-4.13.1.jar:4.13.1]
	at org.junit.runners.BlockJUnit4ClassRunner.runChild(BlockJUnit4ClassRunner.java:63) [junit-4.13.1.jar:4.13.1]
	at org.junit.runners.ParentRunner$4.run(ParentRunner.java:331) [junit-4.13.1.jar:4.13.1]
	at org.junit.runners.ParentRunner$1.schedule(ParentRunner.java:79) [junit-4.13.1.jar:4.13.1]
	at org.junit.runners.ParentRunner.runChildren(ParentRunner.java:329) [junit-4.13.1.jar:4.13.1]
	at org.junit.runners.ParentRunner.access$100(ParentRunner.java:66) [junit-4.13.1.jar:4.13.1]
	at org.junit.runners.ParentRunner$2.evaluate(ParentRunner.java:293) [junit-4.13.1.jar:4.13.1]
	at org.junit.runners.ParentRunner$3.evaluate(ParentRunner.java:306) [junit-4.13.1.jar:4.13.1]
	at org.junit.runners.ParentRunner.run(ParentRunner.java:413) [junit-4.13.1.jar:4.13.1]
	at org.apache.maven.surefire.junit4.JUnit4Provider.execute(JUnit4Provider.java:252) [surefire-junit4-2.12.4.jar:2.12.4]
	at org.apache.maven.surefire.junit4.JUnit4Provider.executeTestSet(JUnit4Provider.java:141) [surefire-junit4-2.12.4.jar:2.12.4]
	at org.apache.maven.surefire.junit4.JUnit4Provider.invoke(JUnit4Provider.java:112) [surefire-junit4-2.12.4.jar:2.12.4]
	at jdk.internal.reflect.NativeMethodAccessorImpl.invoke0(Native Method) ~[?:?]
	at jdk.internal.reflect.NativeMethodAccessorImpl.invoke(NativeMethodAccessorImpl.java:64) ~[?:?]
	at jdk.internal.reflect.DelegatingMethodAccessorImpl.invoke(DelegatingMethodAccessorImpl.java:43) ~[?:?]
	at java.lang.reflect.Method.invoke(Method.java:564) ~[?:?]
	at org.apache.maven.surefire.util.ReflectionUtils.invokeMethodWithArray(ReflectionUtils.java:189) [surefire-api-2.12.4.jar:2.12.4]
	at org.apache.maven.surefire.booter.ProviderFactory$ProviderProxy.invoke(ProviderFactory.java:165) [surefire-booter-2.12.4.jar:2.12.4]
	at org.apache.maven.surefire.booter.ProviderFactory.invokeProvider(ProviderFactory.java:85) [surefire-booter-2.12.4.jar:2.12.4]
	at org.apache.maven.surefire.booter.ForkedBooter.runSuitesInProcess(ForkedBooter.java:115) [surefire-booter-2.12.4.jar:2.12.4]
	at org.apache.maven.surefire.booter.ForkedBooter.main(ForkedBooter.java:75) [surefire-booter-2.12.4.jar:2.12.4]
2021-05-25T16:16:28,574  INFO MatsimRuntimeModifications:79 S H U T D O W N   ---   start shutdown.
2021-05-25T16:16:28,574 ERROR MatsimRuntimeModifications:81 ERROR --- This is an unexpected shutdown!
2021-05-25T16:16:28,574 ERROR MatsimRuntimeModifications:84 Shutdown possibly caused by the following Exception:
java.lang.RuntimeException: There are modes configured to be deterministic service modes as well as qsim main modes. This will not work! common modes = train
	at ch.sbb.matsim.mobsim.qsim.pt.SBBTransitQSimEngine.createVehiclesAndDrivers(SBBTransitQSimEngine.java:210) ~[classes/:?]
	at ch.sbb.matsim.mobsim.qsim.pt.SBBTransitQSimEngine.insertAgentsIntoMobsim(SBBTransitQSimEngine.java:123) ~[classes/:?]
	at org.matsim.core.mobsim.qsim.QSim.createAgents(QSim.java:293) ~[matsim-13.0.jar:?]
[...]
2021-05-25T16:16:29,038  INFO PreProcessLandmarks:163 done in 0 ms
2021-05-25T16:16:29,039  INFO RandomizingTimeDistanceTravelDisutilityFactory:85  sigma: 3.0; resulting normalization: 0.011108996538242306
2021-05-25T16:16:29,040  INFO Counter:74 [PersonPrepareForSim] handled person # 0
2021-05-25T16:16:29,041  INFO AbstractController:133 ###################################################
2021-05-25T16:16:29,041  INFO AbstractController:134 ### ITERATION 0 BEGINS
2021-05-25T16:16:29,042  INFO ControlerListenerManagerImpl:145 calling notifyIterationStarts on org.matsim.analysis.LegHistogramListener
2021-05-25T16:16:29,042  INFO ControlerListenerManagerImpl:145 calling notifyIterationStarts on org.matsim.analysis.LinkStatsControlerListener
2021-05-25T16:16:29,043  INFO ControlerListenerManagerImpl:145 calling notifyIterationStarts on org.matsim.core.replanning.ReplanningContextImpl
2021-05-25T16:16:29,043  INFO ControlerListenerManagerImpl:145 calling notifyIterationStarts on org.matsim.core.scoring.ScoringFunctionsForPopulation$1
2021-05-25T16:16:29,043  INFO ControlerListenerManagerImpl:145 calling notifyIterationStarts on org.matsim.core.scoring.ExperiencedPlansServiceImpl$1
2021-05-25T16:16:29,043  INFO ControlerListenerManagerImpl:148 [it.0] all ControlerIterationStartsListeners called.
2021-05-25T16:16:29,043  INFO ControlerListenerManagerImpl:224 calling notifyBeforeMobsim on org.matsim.core.controler.corelisteners.EventsHandlingImpl
2021-05-25T16:16:29,044  INFO EventsManagerImpl:190 resetting Event-Handlers
2021-05-25T16:16:29,044  INFO EventsManagerImpl:197   org.matsim.core.trafficmonitoring.TravelTimeCalculator
2021-05-25T16:16:29,044  INFO EventsManagerImpl:197   org.matsim.core.scoring.EventsToLegsAndActivities
2021-05-25T16:16:29,044  INFO EventsManagerImpl:197   org.matsim.analysis.VolumesAnalyzer
2021-05-25T16:16:29,044  INFO EventsManagerImpl:197   org.matsim.core.scoring.ScoringFunctionsForPopulation
2021-05-25T16:16:29,044  INFO EventsManagerImpl:197   org.matsim.analysis.LegHistogram
2021-05-25T16:16:29,045  INFO EventsManagerImpl:197   org.matsim.analysis.CalcLegTimes
2021-05-25T16:16:29,045  INFO EventsManagerImpl:197   ch.sbb.matsim.routing.pt.raptor.SwissRailRaptorFactory$$Lambda$182/0x0000000800e46dd0
2021-05-25T16:16:29,046  INFO EventsManagerImpl:160 adding Event-Handler: org.matsim.core.events.algorithms.EventWriterXML
2021-05-25T16:16:29,047  INFO EventsManagerImpl:166   org.matsim.core.events.algorithms.EventWriter
2021-05-25T16:16:29,047  INFO EventsManagerImpl:166   org.matsim.core.events.handler.BasicEventHandler
2021-05-25T16:16:29,047  INFO EventsManagerImpl:227     > org.matsim.api.core.v01.events.Event
2021-05-25T16:16:29,047  INFO EventsManagerImpl:176 
2021-05-25T16:16:29,047  INFO EventsManagerImpl:160 adding Event-Handler: org.matsim.core.events.algorithms.EventWriterXML
2021-05-25T16:16:29,047  INFO EventsManagerImpl:166   org.matsim.core.events.algorithms.EventWriter
2021-05-25T16:16:29,048  INFO EventsManagerImpl:166   org.matsim.core.events.handler.BasicEventHandler
2021-05-25T16:16:29,048  INFO EventsManagerImpl:227     > org.matsim.api.core.v01.events.Event
2021-05-25T16:16:29,048  INFO EventsManagerImpl:176 
2021-05-25T16:16:29,048  INFO ControlerListenerManagerImpl:224 calling notifyBeforeMobsim on org.matsim.core.controler.corelisteners.PlansDumpingImpl
2021-05-25T16:16:29,048  INFO PlansDumpingImpl:76 dumping plans...
2021-05-25T16:16:29,050  INFO PopulationWriter:144 Population written to: test/output/ch/sbb/matsim/mobsim/qsim/pt/SBBTransitQSimEngineIntegrationTest/testIntegration/ITERS/it.0/0.plans.xml.gz
2021-05-25T16:16:29,051  INFO Counter:74 [PopulationWriter] dumped person # 0
2021-05-25T16:16:29,051  INFO PlansDumpingImpl:93 finished plans dump.
2021-05-25T16:16:29,051  INFO ControlerListenerManagerImpl:229 calling notifyBeforeMobsim on org.matsim.core.population.VspPlansCleaner
2021-05-25T16:16:29,052  INFO ControlerListenerManagerImpl:232 [it.0] all ControlerBeforeMobsimListeners called.
2021-05-25T16:16:29,052  INFO RandomizingTimeDistanceTravelDisutilityFactory:85  sigma: 3.0; resulting normalization: 0.011108996538242306
2021-05-25T16:16:29,053  INFO RandomizingTimeDistanceTravelDisutilityFactory:85  sigma: 3.0; resulting normalization: 0.011108996538242306
2021-05-25T16:16:29,054  INFO Counter:74 [PersonPrepareForSim] handled person # 0
2021-05-25T16:16:29,077  INFO MobsimListenerManager:49 calling addQueueSimulationListener
2021-05-25T16:16:29,077  INFO MobsimListenerManager:53   assigned class org.matsim.core.mobsim.framework.listeners.MobsimListener to interface org.matsim.core.mobsim.framework.listeners.MobsimInitializedListener
2021-05-25T16:16:29,077  INFO MobsimListenerManager:53   assigned class org.matsim.core.mobsim.framework.listeners.MobsimListener to interface org.matsim.core.mobsim.framework.listeners.MobsimListener
2021-05-25T16:16:29,077  INFO MobsimListenerManager:53   assigned class org.matsim.core.mobsim.framework.listeners.MobsimListener to interface org.matsim.vis.snapshotwriters.SnapshotWriterManager
2021-05-25T16:16:29,078  INFO MobsimListenerManager:53   assigned class org.matsim.core.mobsim.framework.listeners.MobsimListener to interface org.matsim.core.mobsim.framework.listeners.MobsimAfterSimStepListener
2021-05-25T16:16:29,078  INFO MobsimListenerManager:53   assigned class org.matsim.core.mobsim.framework.listeners.MobsimListener to interface org.matsim.core.mobsim.framework.listeners.MobsimBeforeCleanupListener
2021-05-25T16:16:29,080  INFO QSimProvider:115 Added MobsimEngine class org.matsim.core.mobsim.qsim.ActivityEngineDefaultImpl
2021-05-25T16:16:29,080  INFO QSimProvider:121 Added Activityhandler class org.matsim.core.mobsim.qsim.ActivityEngineDefaultImpl
2021-05-25T16:16:29,080  INFO QSimProvider:127 Added DepartureHandler class org.matsim.core.mobsim.qsim.qnetsimengine.VehicularDepartureHandler
2021-05-25T16:16:29,080  INFO QSimProvider:115 Added MobsimEngine class org.matsim.core.mobsim.qsim.qnetsimengine.QNetsimEngineWithThreadpool
2021-05-25T16:16:29,081  INFO QSimProvider:115 Added MobsimEngine class org.matsim.core.mobsim.qsim.DefaultTeleportationEngine
2021-05-25T16:16:29,081  INFO QSimProvider:127 Added DepartureHandler class org.matsim.core.mobsim.qsim.DefaultTeleportationEngine
2021-05-25T16:16:29,081  INFO QSimProvider:133 Added AgentSource class org.matsim.core.mobsim.qsim.agents.PopulationAgentSource
2021-05-25T16:16:29,081  INFO MobsimListenerManager:49 calling addQueueSimulationListener
2021-05-25T16:16:29,082  INFO MobsimListenerManager:53   assigned class org.matsim.core.mobsim.framework.listeners.MobsimListener to interface org.matsim.core.mobsim.qsim.messagequeueengine.MessageQueueEngine
2021-05-25T16:16:29,082  INFO MobsimListenerManager:53   assigned class org.matsim.core.mobsim.framework.listeners.MobsimListener to interface org.matsim.core.mobsim.framework.listeners.MobsimListener
2021-05-25T16:16:29,082  INFO MobsimListenerManager:53   assigned class org.matsim.core.mobsim.framework.listeners.MobsimListener to interface org.matsim.core.mobsim.framework.listeners.MobsimBeforeSimStepListener
2021-05-25T16:16:29,082  INFO QSimProvider:139 Added MobsimListener class org.matsim.core.mobsim.qsim.messagequeueengine.MessageQueueEngine
2021-05-25T16:16:29,082  INFO QSimProvider:115 Added MobsimEngine class ch.sbb.matsim.mobsim.qsim.pt.SBBTransitQSimEngine
2021-05-25T16:16:29,082  INFO QSimProvider:127 Added DepartureHandler class ch.sbb.matsim.mobsim.qsim.pt.SBBTransitQSimEngine
2021-05-25T16:16:29,083  INFO QSimProvider:133 Added AgentSource class ch.sbb.matsim.mobsim.qsim.pt.SBBTransitQSimEngine
2021-05-25T16:16:29,101  INFO AbstractQNetsimEngine:427 Assigned 5 nodes and 4 links to QSimEngineRunner #0
2021-05-25T16:16:29,103  INFO EventsManagerImpl:137  event # 1
2021-05-25T16:16:29,111  INFO AbstractQNetsimEngine:365 SIMULATION (QNetsimEngine) AT 08:20:00 : #links=0 #nodes=0
2021-05-25T16:16:29,113  INFO EventsManagerImpl:137  event # 4
2021-05-25T16:16:29,126  INFO QSim:542 SIMULATION (NEW QSim) AT 08:20:00 : #Veh=1 lost=0 simT=0.0s realT=0s; (s/r): 0.0
2021-05-25T16:16:29,223  INFO AbstractController$9:234 ### ITERATION 0 fires after mobsim event
2021-05-25T16:16:29,223  INFO ControlerListenerManagerImpl:248 calling notifyAfterMobsim on org.matsim.analysis.LegTimesControlerListener
2021-05-25T16:16:29,225  INFO LegTimesControlerListener:50 [0] average trip (probably: leg) duration is: 0 seconds = 00:00:00
2021-05-25T16:16:29,226  INFO ControlerListenerManagerImpl:248 calling notifyAfterMobsim on org.matsim.core.events.MobsimScopeEventHandling
2021-05-25T16:16:29,226  INFO Gbl:191 Thread performance: Thread=class org.matsim.core.events.SimStepParallelEventsManagerImpl$ProcessEventsRunnable0  cpu-time=0.0sec
2021-05-25T16:16:29,227  INFO ControlerListenerManagerImpl:248 calling notifyAfterMobsim on org.matsim.core.scoring.EventsToActivities$1
2021-05-25T16:16:29,227  INFO ControlerListenerManagerImpl:251 [it.0] all ControlerAfterMobsimListeners called.
2021-05-25T16:16:29,229  INFO AbstractController$4:159 ### ITERATION 0 fires scoring event
2021-05-25T16:16:29,229  INFO ControlerListenerManagerImpl:183 calling notifyScoring on org.matsim.core.scoring.PlansScoringImpl
2021-05-25T16:16:29,236  INFO NewScoreAssignerImpl:57 it: 0 msaStart: null
2021-05-25T16:16:29,236  INFO ControlerListenerManagerImpl:194 [it.0] all ControlerScoringListeners called.
2021-05-25T16:16:29,238  INFO AbstractController$5:167 ### ITERATION 0 fires iteration end event
2021-05-25T16:16:29,239  INFO ControlerListenerManagerImpl:160 calling notifyIterationEnds on org.matsim.core.controler.corelisteners.EventsHandlingImpl
2021-05-25T16:16:29,240  INFO EventsManagerImpl:181 removing Event-Handler: org.matsim.core.events.algorithms.EventWriterXML
2021-05-25T16:16:29,240  INFO EventsManagerImpl:181 removing Event-Handler: org.matsim.core.events.algorithms.EventWriterXML
2021-05-25T16:16:29,240  INFO ControlerListenerManagerImpl:160 calling notifyIterationEnds on org.matsim.core.scoring.PlansScoringImpl
2021-05-25T16:16:29,241  INFO ControlerListenerManagerImpl:167 calling notifyIterationEnds on org.matsim.counts.CountsControlerListener
2021-05-25T16:16:29,242  INFO ControlerListenerManagerImpl:167 calling notifyIterationEnds on org.matsim.analysis.ModeStatsControlerListener
2021-05-25T16:16:29,245  INFO ModeStatsControlerListener:130 Mode shares over all 0.0 trips found. MainModeIdentifier: class org.matsim.core.router.RoutingModeMainModeIdentifier
2021-05-25T16:16:29,246  INFO ControlerListenerManagerImpl:167 calling notifyIterationEnds on org.matsim.analysis.ScoreStatsControlerListener
2021-05-25T16:16:29,247  INFO ScoreStatsControlerListener:181 -- avg. score of the executed plan of each agent: NaN
2021-05-25T16:16:29,247  INFO ScoreStatsControlerListener:182 -- avg. score of the worst plan of each agent: NaN
2021-05-25T16:16:29,248  INFO ScoreStatsControlerListener:183 -- avg. of the avg. plan score per agent: NaN
2021-05-25T16:16:29,248  INFO ScoreStatsControlerListener:184 -- avg. score of the best plan of each agent: NaN
2021-05-25T16:16:29,253  INFO ControlerListenerManagerImpl:167 calling notifyIterationEnds on org.matsim.analysis.IterationTravelStatsControlerListener
2021-05-25T16:16:29,260  INFO TravelDistanceStats:143 -- average leg distance per plan (executed plans only): 0.0 meters
2021-05-25T16:16:29,261  INFO TravelDistanceStats:144 average leg distance per Person (executed plans only): NaN meters (statistic on all 0 legs which have a finite distance)
2021-05-25T16:16:29,261  INFO TravelDistanceStats:145 -- average trip distance per plan (executed plans only): 0.0 meters
2021-05-25T16:16:29,262  INFO TravelDistanceStats:146 average trip distance per Person (executed plans only): NaN meters (statistic on all 0 trips which have a finite distance)
2021-05-25T16:16:29,262  INFO TravelDistanceStats:147 (TravelDistanceStats takes an average over all legs where the simulation reports travelled (network) distances
2021-05-25T16:16:29,262  INFO TravelDistanceStats:148 (and teleported legs whose route contains a distance.)
2021-05-25T16:16:29,989  INFO ControlerListenerManagerImpl:167 calling notifyIterationEnds on org.matsim.analysis.LegHistogramListener
2021-05-25T16:16:30,003  INFO LegHistogramListener:72 number of legs:	0	100%
2021-05-25T16:16:30,198  INFO ControlerListenerManagerImpl:167 calling notifyIterationEnds on org.matsim.analysis.LinkStatsControlerListener
2021-05-25T16:16:30,198  INFO ControlerListenerManagerImpl:171 [it.0] all ControlerIterationEndsListeners called.
2021-05-25T16:16:30,361  INFO AbstractController:181 ### ITERATION 0 ENDS
2021-05-25T16:16:30,362  INFO AbstractController:182 ###################################################
2021-05-25T16:16:30,362  INFO MatsimRuntimeModifications:79 S H U T D O W N   ---   start shutdown.
2021-05-25T16:16:30,362  INFO ControlerListenerManagerImpl:121 calling notifyShutdown on org.matsim.core.controler.corelisteners.EventsHandlingImpl
2021-05-25T16:16:30,362  INFO ControlerListenerManagerImpl:121 calling notifyShutdown on org.matsim.core.controler.corelisteners.DumpDataAtEndImpl
2021-05-25T16:16:30,364  INFO PopulationWriter:144 Population written to: test/output/ch/sbb/matsim/mobsim/qsim/pt/SBBTransitQSimEngineIntegrationTest/testIntegration/output_plans.xml.gz
2021-05-25T16:16:30,364  INFO Counter:74 [PopulationWriter] dumped person # 0
2021-05-25T16:16:30,366  INFO NetworkWriter:69 Writing network to file: test/output/ch/sbb/matsim/mobsim/qsim/pt/SBBTransitQSimEngineIntegrationTest/testIntegration/output_network.xml.gz...
2021-05-25T16:16:30,372  INFO NetworkWriter:72 done.
2021-05-25T16:16:30,382  INFO Config:572 setting context to [file:/C:/Users/Stephen%20McCarthy/Source/Repos/MatsimExample/matsim-example-project/]
2021-05-25T16:16:30,386  INFO Config:572 setting context to [file:/C:/Users/Stephen%20McCarthy/Source/Repos/MatsimExample/matsim-example-project/]
2021-05-25T16:16:30,389  INFO Config:572 setting context to [file:/C:/Users/Stephen%20McCarthy/Source/Repos/MatsimExample/matsim-example-project/]
2021-05-25T16:16:30,393  INFO Config:572 setting context to [file:/C:/Users/Stephen%20McCarthy/Source/Repos/MatsimExample/matsim-example-project/]
2021-05-25T16:16:30,396  INFO Config:572 setting context to [file:/C:/Users/Stephen%20McCarthy/Source/Repos/MatsimExample/matsim-example-project/]
2021-05-25T16:16:30,405  INFO Config:572 setting context to [file:/C:/Users/Stephen%20McCarthy/Source/Repos/MatsimExample/matsim-example-project/]
2021-05-25T16:16:30,410  INFO Config:572 setting context to [file:/C:/Users/Stephen%20McCarthy/Source/Repos/MatsimExample/matsim-example-project/]
2021-05-25T16:16:30,413  INFO Config:572 setting context to [file:/C:/Users/Stephen%20McCarthy/Source/Repos/MatsimExample/matsim-example-project/]
2021-05-25T16:16:30,418  INFO Config:572 setting context to [file:/C:/Users/Stephen%20McCarthy/Source/Repos/MatsimExample/matsim-example-project/]
2021-05-25T16:16:30,423  INFO Config:572 setting context to [file:/C:/Users/Stephen%20McCarthy/Source/Repos/MatsimExample/matsim-example-project/]
2021-05-25T16:16:30,426  INFO Config:572 setting context to [file:/C:/Users/Stephen%20McCarthy/Source/Repos/MatsimExample/matsim-example-project/]
2021-05-25T16:16:30,429  INFO Config:572 setting context to [file:/C:/Users/Stephen%20McCarthy/Source/Repos/MatsimExample/matsim-example-project/]
2021-05-25T16:16:30,433  INFO Config:572 setting context to [file:/C:/Users/Stephen%20McCarthy/Source/Repos/MatsimExample/matsim-example-project/]
2021-05-25T16:16:30,438  INFO Config:572 setting context to [file:/C:/Users/Stephen%20McCarthy/Source/Repos/MatsimExample/matsim-example-project/]
2021-05-25T16:16:30,444  INFO Config:572 setting context to [file:/C:/Users/Stephen%20McCarthy/Source/Repos/MatsimExample/matsim-example-project/]
2021-05-25T16:16:30,447  INFO Config:572 setting context to [file:/C:/Users/Stephen%20McCarthy/Source/Repos/MatsimExample/matsim-example-project/]
2021-05-25T16:16:30,450  INFO Config:572 setting context to [file:/C:/Users/Stephen%20McCarthy/Source/Repos/MatsimExample/matsim-example-project/]
2021-05-25T16:16:30,453  INFO Config:572 setting context to [file:/C:/Users/Stephen%20McCarthy/Source/Repos/MatsimExample/matsim-example-project/]
2021-05-25T16:16:30,470  INFO Config:572 setting context to [file:/C:/Users/Stephen%20McCarthy/Source/Repos/MatsimExample/matsim-example-project/]
2021-05-25T16:16:30,473  INFO Config:572 setting context to [file:/C:/Users/Stephen%20McCarthy/Source/Repos/MatsimExample/matsim-example-project/]
2021-05-25T16:16:30,476  INFO Config:572 setting context to [file:/C:/Users/Stephen%20McCarthy/Source/Repos/MatsimExample/matsim-example-project/]
2021-05-25T16:16:30,488  INFO Config:572 setting context to [file:/C:/Users/Stephen%20McCarthy/Source/Repos/MatsimExample/matsim-example-project/]
2021-05-25T16:16:30,491  INFO Config:572 setting context to [file:/C:/Users/Stephen%20McCarthy/Source/Repos/MatsimExample/matsim-example-project/]
2021-05-25T16:16:30,496  INFO Config:572 setting context to [file:/C:/Users/Stephen%20McCarthy/Source/Repos/MatsimExample/matsim-example-project/]
2021-05-25T16:16:30,500  INFO Config:572 setting context to [file:/C:/Users/Stephen%20McCarthy/Source/Repos/MatsimExample/matsim-example-project/]
2021-05-25T16:16:30,504  INFO Config:572 setting context to [file:/C:/Users/Stephen%20McCarthy/Source/Repos/MatsimExample/matsim-example-project/]
2021-05-25T16:16:30,508  INFO Config:572 setting context to [file:/C:/Users/Stephen%20McCarthy/Source/Repos/MatsimExample/matsim-example-project/]
2021-05-25T16:16:30,521  INFO TransitScheduleWriter:87 about to write transit schedule to: test/output/ch/sbb/matsim/mobsim/qsim/pt/SBBTransitQSimEngineIntegrationTest/testIntegration/output_transitSchedule.xml.gz
2021-05-25T16:16:30,538  INFO MatsimVehicleWriter:54 about to write vehicles to: test/output/ch/sbb/matsim/mobsim/qsim/pt/SBBTransitQSimEngineIntegrationTest/testIntegration/output_transitVehicles.xml.gz
2021-05-25T16:16:30,538  INFO VehicleWriterV2:63 about to write vehicles to: test/output/ch/sbb/matsim/mobsim/qsim/pt/SBBTransitQSimEngineIntegrationTest/testIntegration/output_transitVehicles.xml.gz
2021-05-25T16:16:30,544  INFO MatsimVehicleWriter:54 about to write vehicles to: test/output/ch/sbb/matsim/mobsim/qsim/pt/SBBTransitQSimEngineIntegrationTest/testIntegration/output_vehicles.xml.gz
2021-05-25T16:16:30,544  INFO VehicleWriterV2:63 about to write vehicles to: test/output/ch/sbb/matsim/mobsim/qsim/pt/SBBTransitQSimEngineIntegrationTest/testIntegration/output_vehicles.xml.gz
2021-05-25T16:16:30,546  INFO VehicleUtils:324 adding scenario element for allvehicles container
2021-05-25T16:16:30,547  INFO HouseholdsWriterV10:66 about to write  households to: test/output/ch/sbb/matsim/mobsim/qsim/pt/SBBTransitQSimEngineIntegrationTest/testIntegration/output_households.xml.gz
2021-05-25T16:16:30,549  INFO Counter:74 [HouseholdsWriter] wrote household # 0
2021-05-25T16:16:30,569  INFO ControlerListenerManagerImpl:126 calling notifyShutdown on org.matsim.analysis.ScoreStatsControlerListener
2021-05-25T16:16:30,570  INFO ControlerListenerManagerImpl:126 calling notifyShutdown on org.matsim.analysis.IterationTravelStatsControlerListener
2021-05-25T16:16:30,570  INFO IterationTravelStatsControlerListener:104 Writing all Person and Attributes to personscsv
2021-05-25T16:16:30,573  INFO IterationTravelStatsControlerListener:148 ...done
2021-05-25T16:16:30,574  INFO ControlerListenerManagerImpl:129 all ControlerShutdownListeners called.
2021-05-25T16:16:30,574  INFO MatsimRuntimeModifications:102 S H U T D O W N   ---   shutdown completed.
2021-05-25T16:16:30,574  INFO OutputDirectoryLogging:170 closing the logfile, i.e. messages sent to the logger after this message are not written to the logfile.
